<routes>
        <vType id="v1" accel="2.6" decel="4.5" sigma="0.5" length="5" minGap="1" maxSpeed="55" guiShape="passenger"/>

        <route id="r13" edges="96027913#0 96027913#2 30186293 311389510#1" />
        <route id="r42" edges="-355113043#1 -24626686#2 -24626686#1 -34992983#3 -34992983#1" />
    <vehicle id="right_0" type="v1" route="r13" depart="2" />
    <vehicle id="up_1" type="v1" route="r42" depart="5" />
    <vehicle id="up_2" type="v1" route="r42" depart="6" />
    <vehicle id="right_3" type="v1" route="r13" depart="9" />
    <vehicle id="up_4" type="v1" route="r42" depart="15" />
    <vehicle id="up_5" type="v1" route="r42" depart="22" />
    <vehicle id="up_6" type="v1" route="r42" depart="25" />
    <vehicle id="up_7" type="v1" route="r42" depart="27" />
    <vehicle id="up_8" type="v1" route="r42" depart="28" />
    <vehicle id="up_9" type="v1" route="r42" depart="33" />
    <vehicle id="up_10" type="v1" route="r42" depart="38" />
    <vehicle id="right_11" type="v1" route="r13" depart="46" />
    <vehicle id="up_12" type="v1" route="r42" depart="48" />
    <vehicle id="right_13" type="v1" route="r13" depart="54" />
    <vehicle id="right_14" type="v1" route="r13" depart="57" />
    <vehicle id="right_15" type="v1" route="r13" depart="60" />
    <vehicle id="up_16" type="v1" route="r42" depart="64" />
    <vehicle id="right_17" type="v1" route="r13" depart="75" />
    <vehicle id="right_18" type="v1" route="r13" depart="77" />
    <vehicle id="right_19" type="v1" route="r13" depart="79" />
    <vehicle id="right_20" type="v1" route="r13" depart="80" />
    <vehicle id="right_21" type="v1" route="r13" depart="91" />
    <vehicle id="up_22" type="v1" route="r42" depart="96" />
    <vehicle id="up_23" type="v1" route="r42" depart="97" />
    <vehicle id="up_24" type="v1" route="r42" depart="104" />
    <vehicle id="up_25" type="v1" route="r42" depart="105" />
    <vehicle id="up_26" type="v1" route="r42" depart="106" />
    <vehicle id="up_27" type="v1" route="r42" depart="111" />
    <vehicle id="right_28" type="v1" route="r13" depart="115" />
    <vehicle id="up_29" type="v1" route="r42" depart="121" />
    <vehicle id="up_30" type="v1" route="r42" depart="123" />
    <vehicle id="right_31" type="v1" route="r13" depart="124" />
    <vehicle id="up_32" type="v1" route="r42" depart="129" />
    <vehicle id="right_33" type="v1" route="r13" depart="132" />
    <vehicle id="up_34" type="v1" route="r42" depart="133" />
    <vehicle id="up_35" type="v1" route="r42" depart="134" />
    <vehicle id="up_36" type="v1" route="r42" depart="138" />
    <vehicle id="right_37" type="v1" route="r13" depart="140" />
    <vehicle id="right_38" type="v1" route="r13" depart="143" />
    <vehicle id="right_39" type="v1" route="r13" depart="144" />
    <vehicle id="up_40" type="v1" route="r42" depart="145" />
    <vehicle id="right_41" type="v1" route="r13" depart="146" />
    <vehicle id="right_42" type="v1" route="r13" depart="149" />
    <vehicle id="right_43" type="v1" route="r13" depart="152" />
    <vehicle id="right_44" type="v1" route="r13" depart="159" />
    <vehicle id="right_45" type="v1" route="r13" depart="160" />
    <vehicle id="right_46" type="v1" route="r13" depart="165" />
    <vehicle id="up_47" type="v1" route="r42" depart="165" />
    <vehicle id="right_48" type="v1" route="r13" depart="170" />
    <vehicle id="right_49" type="v1" route="r13" depart="171" />
    <vehicle id="up_50" type="v1" route="r42" depart="173" />
    <vehicle id="right_51" type="v1" route="r13" depart="175" />
    <vehicle id="up_52" type="v1" route="r42" depart="176" />
    <vehicle id="up_53" type="v1" route="r42" depart="177" />
    <vehicle id="right_54" type="v1" route="r13" depart="178" />
    <vehicle id="up_55" type="v1" route="r42" depart="178" />
    <vehicle id="right_56" type="v1" route="r13" depart="180" />
    <vehicle id="up_57" type="v1" route="r42" depart="184" />
    <vehicle id="up_58" type="v1" route="r42" depart="188" />
    <vehicle id="right_59" type="v1" route="r13" depart="189" />
    <vehicle id="up_60" type="v1" route="r42" depart="191" />
    <vehicle id="up_61" type="v1" route="r42" depart="192" />
    <vehicle id="up_62" type="v1" route="r42" depart="193" />
    <vehicle id="up_63" type="v1" route="r42" depart="194" />
    <vehicle id="up_64" type="v1" route="r42" depart="196" />
    <vehicle id="up_65" type="v1" route="r42" depart="199" />
    <vehicle id="right_66" type="v1" route="r13" depart="200" />
    <vehicle id="up_67" type="v1" route="r42" depart="202" />
    <vehicle id="right_68" type="v1" route="r13" depart="204" />
    <vehicle id="up_69" type="v1" route="r42" depart="206" />
    <vehicle id="right_70" type="v1" route="r13" depart="207" />
    <vehicle id="right_71" type="v1" route="r13" depart="208" />
    <vehicle id="up_72" type="v1" route="r42" depart="213" />
    <vehicle id="right_73" type="v1" route="r13" depart="215" />
    <vehicle id="right_74" type="v1" route="r13" depart="216" />
    <vehicle id="right_75" type="v1" route="r13" depart="218" />
    <vehicle id="right_76" type="v1" route="r13" depart="219" />
    <vehicle id="right_77" type="v1" route="r13" depart="220" />
    <vehicle id="up_78" type="v1" route="r42" depart="221" />
    <vehicle id="right_79" type="v1" route="r13" depart="228" />
    <vehicle id="up_80" type="v1" route="r42" depart="229" />
    <vehicle id="up_81" type="v1" route="r42" depart="231" />
    <vehicle id="up_82" type="v1" route="r42" depart="234" />
    <vehicle id="up_83" type="v1" route="r42" depart="236" />
    <vehicle id="up_84" type="v1" route="r42" depart="237" />
    <vehicle id="up_85" type="v1" route="r42" depart="238" />
    <vehicle id="up_86" type="v1" route="r42" depart="239" />
    <vehicle id="up_87" type="v1" route="r42" depart="240" />
    <vehicle id="up_88" type="v1" route="r42" depart="243" />
    <vehicle id="up_89" type="v1" route="r42" depart="244" />
    <vehicle id="up_90" type="v1" route="r42" depart="245" />
    <vehicle id="up_91" type="v1" route="r42" depart="246" />
    <vehicle id="right_92" type="v1" route="r13" depart="259" />
    <vehicle id="up_93" type="v1" route="r42" depart="259" />
    <vehicle id="up_94" type="v1" route="r42" depart="260" />
    <vehicle id="up_95" type="v1" route="r42" depart="261" />
    <vehicle id="right_96" type="v1" route="r13" depart="265" />
    <vehicle id="up_97" type="v1" route="r42" depart="270" />
    <vehicle id="up_98" type="v1" route="r42" depart="271" />
    <vehicle id="up_99" type="v1" route="r42" depart="273" />
    <vehicle id="right_100" type="v1" route="r13" depart="277" />
    <vehicle id="right_101" type="v1" route="r13" depart="278" />
    <vehicle id="up_102" type="v1" route="r42" depart="279" />
    <vehicle id="right_103" type="v1" route="r13" depart="281" />
    <vehicle id="right_104" type="v1" route="r13" depart="282" />
    <vehicle id="up_105" type="v1" route="r42" depart="290" />
    <vehicle id="right_106" type="v1" route="r13" depart="298" />
    <vehicle id="right_107" type="v1" route="r13" depart="299" />
    <vehicle id="up_108" type="v1" route="r42" depart="299" />
    <vehicle id="right_109" type="v1" route="r13" depart="309" />
    <vehicle id="up_110" type="v1" route="r42" depart="314" />
    <vehicle id="right_111" type="v1" route="r13" depart="322" />
    <vehicle id="right_112" type="v1" route="r13" depart="323" />
    <vehicle id="right_113" type="v1" route="r13" depart="326" />
    <vehicle id="right_114" type="v1" route="r13" depart="327" />
    <vehicle id="right_115" type="v1" route="r13" depart="331" />
    <vehicle id="right_116" type="v1" route="r13" depart="333" />
    <vehicle id="up_117" type="v1" route="r42" depart="340" />
    <vehicle id="right_118" type="v1" route="r13" depart="343" />
    <vehicle id="right_119" type="v1" route="r13" depart="353" />
    <vehicle id="up_120" type="v1" route="r42" depart="354" />
    <vehicle id="right_121" type="v1" route="r13" depart="363" />
    <vehicle id="right_122" type="v1" route="r13" depart="364" />
    <vehicle id="up_123" type="v1" route="r42" depart="366" />
    <vehicle id="right_124" type="v1" route="r13" depart="367" />
    <vehicle id="up_125" type="v1" route="r42" depart="367" />
    <vehicle id="right_126" type="v1" route="r13" depart="368" />
    <vehicle id="right_127" type="v1" route="r13" depart="369" />
    <vehicle id="right_128" type="v1" route="r13" depart="372" />
    <vehicle id="right_129" type="v1" route="r13" depart="374" />
    <vehicle id="right_130" type="v1" route="r13" depart="378" />
    <vehicle id="up_131" type="v1" route="r42" depart="381" />
    <vehicle id="up_132" type="v1" route="r42" depart="387" />
    <vehicle id="up_133" type="v1" route="r42" depart="388" />
    <vehicle id="up_134" type="v1" route="r42" depart="389" />
    <vehicle id="right_135" type="v1" route="r13" depart="395" />
    <vehicle id="right_136" type="v1" route="r13" depart="400" />
    <vehicle id="right_137" type="v1" route="r13" depart="401" />
    <vehicle id="up_138" type="v1" route="r42" depart="404" />
    <vehicle id="right_139" type="v1" route="r13" depart="405" />
    <vehicle id="up_140" type="v1" route="r42" depart="407" />
    <vehicle id="up_141" type="v1" route="r42" depart="409" />
    <vehicle id="right_142" type="v1" route="r13" depart="413" />
    <vehicle id="right_143" type="v1" route="r13" depart="420" />
    <vehicle id="up_144" type="v1" route="r42" depart="435" />
    <vehicle id="up_145" type="v1" route="r42" depart="436" />
    <vehicle id="up_146" type="v1" route="r42" depart="440" />
    <vehicle id="right_147" type="v1" route="r13" depart="441" />
    <vehicle id="up_148" type="v1" route="r42" depart="449" />
    <vehicle id="up_149" type="v1" route="r42" depart="455" />
    <vehicle id="up_150" type="v1" route="r42" depart="460" />
    <vehicle id="right_151" type="v1" route="r13" depart="461" />
    <vehicle id="up_152" type="v1" route="r42" depart="461" />
    <vehicle id="right_153" type="v1" route="r13" depart="462" />
    <vehicle id="up_154" type="v1" route="r42" depart="462" />
    <vehicle id="up_155" type="v1" route="r42" depart="471" />
    <vehicle id="up_156" type="v1" route="r42" depart="474" />
    <vehicle id="up_157" type="v1" route="r42" depart="479" />
    <vehicle id="up_158" type="v1" route="r42" depart="482" />
    <vehicle id="right_159" type="v1" route="r13" depart="486" />
    <vehicle id="up_160" type="v1" route="r42" depart="486" />
    <vehicle id="up_161" type="v1" route="r42" depart="488" />
    <vehicle id="right_162" type="v1" route="r13" depart="493" />
    <vehicle id="up_163" type="v1" route="r42" depart="494" />
    <vehicle id="right_164" type="v1" route="r13" depart="495" />
    <vehicle id="up_165" type="v1" route="r42" depart="495" />
    <vehicle id="up_166" type="v1" route="r42" depart="500" />
    <vehicle id="right_167" type="v1" route="r13" depart="501" />
    <vehicle id="right_168" type="v1" route="r13" depart="505" />
    <vehicle id="up_169" type="v1" route="r42" depart="509" />
    <vehicle id="up_170" type="v1" route="r42" depart="518" />
    <vehicle id="up_171" type="v1" route="r42" depart="520" />
    <vehicle id="right_172" type="v1" route="r13" depart="523" />
    <vehicle id="right_173" type="v1" route="r13" depart="524" />
    <vehicle id="right_174" type="v1" route="r13" depart="525" />
    <vehicle id="right_175" type="v1" route="r13" depart="526" />
    <vehicle id="up_176" type="v1" route="r42" depart="526" />
    <vehicle id="up_177" type="v1" route="r42" depart="528" />
    <vehicle id="up_178" type="v1" route="r42" depart="531" />
    <vehicle id="up_179" type="v1" route="r42" depart="533" />
    <vehicle id="right_180" type="v1" route="r13" depart="535" />
    <vehicle id="up_181" type="v1" route="r42" depart="535" />
    <vehicle id="up_182" type="v1" route="r42" depart="536" />
    <vehicle id="right_183" type="v1" route="r13" depart="537" />
    <vehicle id="up_184" type="v1" route="r42" depart="538" />
    <vehicle id="up_185" type="v1" route="r42" depart="541" />
    <vehicle id="up_186" type="v1" route="r42" depart="542" />
    <vehicle id="up_187" type="v1" route="r42" depart="547" />
    <vehicle id="up_188" type="v1" route="r42" depart="551" />
    <vehicle id="up_189" type="v1" route="r42" depart="566" />
    <vehicle id="right_190" type="v1" route="r13" depart="567" />
    <vehicle id="right_191" type="v1" route="r13" depart="568" />
    <vehicle id="up_192" type="v1" route="r42" depart="571" />
    <vehicle id="right_193" type="v1" route="r13" depart="572" />
    <vehicle id="right_194" type="v1" route="r13" depart="574" />
    <vehicle id="up_195" type="v1" route="r42" depart="574" />
    <vehicle id="right_196" type="v1" route="r13" depart="575" />
    <vehicle id="up_197" type="v1" route="r42" depart="576" />
    <vehicle id="up_198" type="v1" route="r42" depart="578" />
    <vehicle id="right_199" type="v1" route="r13" depart="580" />
    <vehicle id="right_200" type="v1" route="r13" depart="581" />
    <vehicle id="right_201" type="v1" route="r13" depart="583" />
    <vehicle id="up_202" type="v1" route="r42" depart="585" />
    <vehicle id="up_203" type="v1" route="r42" depart="590" />
    <vehicle id="up_204" type="v1" route="r42" depart="591" />
    <vehicle id="right_205" type="v1" route="r13" depart="592" />
    <vehicle id="up_206" type="v1" route="r42" depart="597" />
    <vehicle id="up_207" type="v1" route="r42" depart="598" />
    <vehicle id="up_208" type="v1" route="r42" depart="599" />
    <vehicle id="up_209" type="v1" route="r42" depart="600" />
    <vehicle id="up_210" type="v1" route="r42" depart="606" />
    <vehicle id="up_211" type="v1" route="r42" depart="608" />
    <vehicle id="up_212" type="v1" route="r42" depart="609" />
    <vehicle id="up_213" type="v1" route="r42" depart="610" />
    <vehicle id="right_214" type="v1" route="r13" depart="611" />
    <vehicle id="up_215" type="v1" route="r42" depart="611" />
    <vehicle id="right_216" type="v1" route="r13" depart="612" />
    <vehicle id="up_217" type="v1" route="r42" depart="615" />
    <vehicle id="right_218" type="v1" route="r13" depart="616" />
    <vehicle id="right_219" type="v1" route="r13" depart="618" />
    <vehicle id="up_220" type="v1" route="r42" depart="620" />
    <vehicle id="up_221" type="v1" route="r42" depart="623" />
    <vehicle id="up_222" type="v1" route="r42" depart="624" />
    <vehicle id="up_223" type="v1" route="r42" depart="626" />
    <vehicle id="right_224" type="v1" route="r13" depart="638" />
    <vehicle id="up_225" type="v1" route="r42" depart="642" />
    <vehicle id="right_226" type="v1" route="r13" depart="643" />
    <vehicle id="up_227" type="v1" route="r42" depart="643" />
    <vehicle id="up_228" type="v1" route="r42" depart="645" />
    <vehicle id="up_229" type="v1" route="r42" depart="652" />
    <vehicle id="right_230" type="v1" route="r13" depart="658" />
    <vehicle id="right_231" type="v1" route="r13" depart="661" />
    <vehicle id="right_232" type="v1" route="r13" depart="664" />
    <vehicle id="right_233" type="v1" route="r13" depart="666" />
    <vehicle id="right_234" type="v1" route="r13" depart="670" />
    <vehicle id="up_235" type="v1" route="r42" depart="670" />
    <vehicle id="up_236" type="v1" route="r42" depart="671" />
    <vehicle id="right_237" type="v1" route="r13" depart="676" />
    <vehicle id="right_238" type="v1" route="r13" depart="684" />
    <vehicle id="up_239" type="v1" route="r42" depart="686" />
    <vehicle id="up_240" type="v1" route="r42" depart="687" />
    <vehicle id="up_241" type="v1" route="r42" depart="688" />
    <vehicle id="right_242" type="v1" route="r13" depart="689" />
    <vehicle id="up_243" type="v1" route="r42" depart="689" />
    <vehicle id="up_244" type="v1" route="r42" depart="691" />
    <vehicle id="right_245" type="v1" route="r13" depart="697" />
    <vehicle id="right_246" type="v1" route="r13" depart="701" />
    <vehicle id="up_247" type="v1" route="r42" depart="706" />
    <vehicle id="up_248" type="v1" route="r42" depart="707" />
    <vehicle id="right_249" type="v1" route="r13" depart="708" />
    <vehicle id="up_250" type="v1" route="r42" depart="709" />
    <vehicle id="right_251" type="v1" route="r13" depart="712" />
    <vehicle id="up_252" type="v1" route="r42" depart="719" />
    <vehicle id="right_253" type="v1" route="r13" depart="722" />
    <vehicle id="up_254" type="v1" route="r42" depart="722" />
    <vehicle id="right_255" type="v1" route="r13" depart="725" />
    <vehicle id="up_256" type="v1" route="r42" depart="725" />
    <vehicle id="right_257" type="v1" route="r13" depart="727" />
    <vehicle id="right_258" type="v1" route="r13" depart="728" />
    <vehicle id="up_259" type="v1" route="r42" depart="731" />
    <vehicle id="up_260" type="v1" route="r42" depart="736" />
    <vehicle id="up_261" type="v1" route="r42" depart="738" />
    <vehicle id="up_262" type="v1" route="r42" depart="739" />
    <vehicle id="up_263" type="v1" route="r42" depart="740" />
    <vehicle id="right_264" type="v1" route="r13" depart="741" />
    <vehicle id="up_265" type="v1" route="r42" depart="742" />
    <vehicle id="up_266" type="v1" route="r42" depart="743" />
    <vehicle id="right_267" type="v1" route="r13" depart="752" />
    <vehicle id="up_268" type="v1" route="r42" depart="756" />
    <vehicle id="right_269" type="v1" route="r13" depart="757" />
    <vehicle id="up_270" type="v1" route="r42" depart="763" />
    <vehicle id="up_271" type="v1" route="r42" depart="769" />
    <vehicle id="right_272" type="v1" route="r13" depart="777" />
    <vehicle id="up_273" type="v1" route="r42" depart="780" />
    <vehicle id="right_274" type="v1" route="r13" depart="781" />
    <vehicle id="up_275" type="v1" route="r42" depart="781" />
    <vehicle id="up_276" type="v1" route="r42" depart="793" />
    <vehicle id="up_277" type="v1" route="r42" depart="794" />
    <vehicle id="up_278" type="v1" route="r42" depart="795" />
    <vehicle id="right_279" type="v1" route="r13" depart="796" />
    <vehicle id="up_280" type="v1" route="r42" depart="796" />
    <vehicle id="up_281" type="v1" route="r42" depart="797" />
    <vehicle id="right_282" type="v1" route="r13" depart="803" />
    <vehicle id="up_283" type="v1" route="r42" depart="809" />
    <vehicle id="right_284" type="v1" route="r13" depart="815" />
    <vehicle id="right_285" type="v1" route="r13" depart="833" />
    <vehicle id="up_286" type="v1" route="r42" depart="839" />
    <vehicle id="up_287" type="v1" route="r42" depart="840" />
    <vehicle id="up_288" type="v1" route="r42" depart="841" />
    <vehicle id="right_289" type="v1" route="r13" depart="845" />
    <vehicle id="right_290" type="v1" route="r13" depart="849" />
    <vehicle id="right_291" type="v1" route="r13" depart="851" />
    <vehicle id="right_292" type="v1" route="r13" depart="852" />
    <vehicle id="up_293" type="v1" route="r42" depart="853" />
    <vehicle id="right_294" type="v1" route="r13" depart="856" />
    <vehicle id="up_295" type="v1" route="r42" depart="856" />
    <vehicle id="up_296" type="v1" route="r42" depart="857" />
    <vehicle id="up_297" type="v1" route="r42" depart="863" />
    <vehicle id="right_298" type="v1" route="r13" depart="868" />
    <vehicle id="right_299" type="v1" route="r13" depart="869" />
    <vehicle id="right_300" type="v1" route="r13" depart="870" />
    <vehicle id="right_301" type="v1" route="r13" depart="871" />
    <vehicle id="up_302" type="v1" route="r42" depart="877" />
    <vehicle id="up_303" type="v1" route="r42" depart="886" />
    <vehicle id="up_304" type="v1" route="r42" depart="887" />
    <vehicle id="right_305" type="v1" route="r13" depart="890" />
    <vehicle id="right_306" type="v1" route="r13" depart="893" />
    <vehicle id="right_307" type="v1" route="r13" depart="898" />
    <vehicle id="up_308" type="v1" route="r42" depart="898" />
    <vehicle id="up_309" type="v1" route="r42" depart="901" />
    <vehicle id="up_310" type="v1" route="r42" depart="903" />
    <vehicle id="up_311" type="v1" route="r42" depart="907" />
    <vehicle id="right_312" type="v1" route="r13" depart="908" />
    <vehicle id="up_313" type="v1" route="r42" depart="914" />
    <vehicle id="up_314" type="v1" route="r42" depart="916" />
    <vehicle id="right_315" type="v1" route="r13" depart="917" />
    <vehicle id="up_316" type="v1" route="r42" depart="922" />
    <vehicle id="up_317" type="v1" route="r42" depart="924" />
    <vehicle id="up_318" type="v1" route="r42" depart="931" />
    <vehicle id="up_319" type="v1" route="r42" depart="932" />
    <vehicle id="up_320" type="v1" route="r42" depart="936" />
    <vehicle id="up_321" type="v1" route="r42" depart="938" />
    <vehicle id="up_322" type="v1" route="r42" depart="946" />
    <vehicle id="right_323" type="v1" route="r13" depart="949" />
    <vehicle id="right_324" type="v1" route="r13" depart="954" />
    <vehicle id="up_325" type="v1" route="r42" depart="954" />
    <vehicle id="right_326" type="v1" route="r13" depart="955" />
    <vehicle id="up_327" type="v1" route="r42" depart="960" />
    <vehicle id="right_328" type="v1" route="r13" depart="967" />
    <vehicle id="right_329" type="v1" route="r13" depart="968" />
    <vehicle id="right_330" type="v1" route="r13" depart="971" />
    <vehicle id="up_331" type="v1" route="r42" depart="978" />
    <vehicle id="up_332" type="v1" route="r42" depart="979" />
    <vehicle id="right_333" type="v1" route="r13" depart="981" />
    <vehicle id="right_334" type="v1" route="r13" depart="982" />
    <vehicle id="right_335" type="v1" route="r13" depart="985" />
    <vehicle id="up_336" type="v1" route="r42" depart="986" />
    <vehicle id="right_337" type="v1" route="r13" depart="987" />
    <vehicle id="up_338" type="v1" route="r42" depart="987" />
    <vehicle id="up_339" type="v1" route="r42" depart="991" />
    <vehicle id="right_340" type="v1" route="r13" depart="994" />
    <vehicle id="right_341" type="v1" route="r13" depart="996" />
    <vehicle id="right_342" type="v1" route="r13" depart="997" />
    <vehicle id="up_343" type="v1" route="r42" depart="997" />
    <vehicle id="right_344" type="v1" route="r13" depart="1000" />
    <vehicle id="right_345" type="v1" route="r13" depart="1001" />
    <vehicle id="up_346" type="v1" route="r42" depart="1004" />
    <vehicle id="up_347" type="v1" route="r42" depart="1007" />
    <vehicle id="up_348" type="v1" route="r42" depart="1011" />
    <vehicle id="right_349" type="v1" route="r13" depart="1013" />
    <vehicle id="up_350" type="v1" route="r42" depart="1017" />
    <vehicle id="right_351" type="v1" route="r13" depart="1023" />
    <vehicle id="right_352" type="v1" route="r13" depart="1026" />
    <vehicle id="up_353" type="v1" route="r42" depart="1027" />
    <vehicle id="right_354" type="v1" route="r13" depart="1030" />
    <vehicle id="up_355" type="v1" route="r42" depart="1030" />
    <vehicle id="right_356" type="v1" route="r13" depart="1035" />
    <vehicle id="right_357" type="v1" route="r13" depart="1038" />
    <vehicle id="up_358" type="v1" route="r42" depart="1040" />
    <vehicle id="up_359" type="v1" route="r42" depart="1041" />
    <vehicle id="up_360" type="v1" route="r42" depart="1042" />
    <vehicle id="right_361" type="v1" route="r13" depart="1044" />
    <vehicle id="up_362" type="v1" route="r42" depart="1048" />
    <vehicle id="up_363" type="v1" route="r42" depart="1051" />
    <vehicle id="up_364" type="v1" route="r42" depart="1057" />
    <vehicle id="up_365" type="v1" route="r42" depart="1058" />
    <vehicle id="right_366" type="v1" route="r13" depart="1060" />
    <vehicle id="up_367" type="v1" route="r42" depart="1068" />
    <vehicle id="right_368" type="v1" route="r13" depart="1069" />
    <vehicle id="up_369" type="v1" route="r42" depart="1071" />
    <vehicle id="right_370" type="v1" route="r13" depart="1078" />
    <vehicle id="right_371" type="v1" route="r13" depart="1079" />
    <vehicle id="up_372" type="v1" route="r42" depart="1084" />
    <vehicle id="up_373" type="v1" route="r42" depart="1090" />
    <vehicle id="up_374" type="v1" route="r42" depart="1091" />
    <vehicle id="right_375" type="v1" route="r13" depart="1092" />
    <vehicle id="up_376" type="v1" route="r42" depart="1093" />
    <vehicle id="up_377" type="v1" route="r42" depart="1096" />
    <vehicle id="right_378" type="v1" route="r13" depart="1104" />
    <vehicle id="up_379" type="v1" route="r42" depart="1104" />
    <vehicle id="right_380" type="v1" route="r13" depart="1105" />
    <vehicle id="right_381" type="v1" route="r13" depart="1114" />
    <vehicle id="up_382" type="v1" route="r42" depart="1125" />
    <vehicle id="up_383" type="v1" route="r42" depart="1132" />
    <vehicle id="right_384" type="v1" route="r13" depart="1134" />
    <vehicle id="right_385" type="v1" route="r13" depart="1137" />
    <vehicle id="right_386" type="v1" route="r13" depart="1138" />
    <vehicle id="right_387" type="v1" route="r13" depart="1143" />
    <vehicle id="right_388" type="v1" route="r13" depart="1151" />
    <vehicle id="right_389" type="v1" route="r13" depart="1152" />
    <vehicle id="up_390" type="v1" route="r42" depart="1153" />
    <vehicle id="up_391" type="v1" route="r42" depart="1157" />
    <vehicle id="right_392" type="v1" route="r13" depart="1158" />
    <vehicle id="right_393" type="v1" route="r13" depart="1160" />
    <vehicle id="up_394" type="v1" route="r42" depart="1164" />
    <vehicle id="right_395" type="v1" route="r13" depart="1167" />
    <vehicle id="up_396" type="v1" route="r42" depart="1168" />
    <vehicle id="right_397" type="v1" route="r13" depart="1169" />
    <vehicle id="up_398" type="v1" route="r42" depart="1169" />
    <vehicle id="up_399" type="v1" route="r42" depart="1170" />
    <vehicle id="right_400" type="v1" route="r13" depart="1171" />
    <vehicle id="right_401" type="v1" route="r13" depart="1177" />
    <vehicle id="right_402" type="v1" route="r13" depart="1179" />
    <vehicle id="up_403" type="v1" route="r42" depart="1182" />
    <vehicle id="right_404" type="v1" route="r13" depart="1191" />
    <vehicle id="right_405" type="v1" route="r13" depart="1193" />
    <vehicle id="up_406" type="v1" route="r42" depart="1193" />
    <vehicle id="up_407" type="v1" route="r42" depart="1194" />
    <vehicle id="right_408" type="v1" route="r13" depart="1199" />
    <vehicle id="up_409" type="v1" route="r42" depart="1199" />
    <vehicle id="up_410" type="v1" route="r42" depart="1200" />
    <vehicle id="up_411" type="v1" route="r42" depart="1203" />
    <vehicle id="up_412" type="v1" route="r42" depart="1205" />
    <vehicle id="up_413" type="v1" route="r42" depart="1206" />
    <vehicle id="up_414" type="v1" route="r42" depart="1211" />
    <vehicle id="up_415" type="v1" route="r42" depart="1214" />
    <vehicle id="right_416" type="v1" route="r13" depart="1226" />
    <vehicle id="up_417" type="v1" route="r42" depart="1230" />
    <vehicle id="up_418" type="v1" route="r42" depart="1234" />
    <vehicle id="up_419" type="v1" route="r42" depart="1239" />
    <vehicle id="right_420" type="v1" route="r13" depart="1240" />
    <vehicle id="up_421" type="v1" route="r42" depart="1244" />
    <vehicle id="right_422" type="v1" route="r13" depart="1249" />
    <vehicle id="right_423" type="v1" route="r13" depart="1250" />
    <vehicle id="up_424" type="v1" route="r42" depart="1252" />
    <vehicle id="right_425" type="v1" route="r13" depart="1253" />
    <vehicle id="right_426" type="v1" route="r13" depart="1256" />
    <vehicle id="up_427" type="v1" route="r42" depart="1256" />
    <vehicle id="up_428" type="v1" route="r42" depart="1260" />
    <vehicle id="right_429" type="v1" route="r13" depart="1267" />
    <vehicle id="right_430" type="v1" route="r13" depart="1268" />
    <vehicle id="right_431" type="v1" route="r13" depart="1271" />
    <vehicle id="up_432" type="v1" route="r42" depart="1273" />
    <vehicle id="up_433" type="v1" route="r42" depart="1281" />
    <vehicle id="right_434" type="v1" route="r13" depart="1286" />
    <vehicle id="right_435" type="v1" route="r13" depart="1287" />
    <vehicle id="up_436" type="v1" route="r42" depart="1291" />
    <vehicle id="right_437" type="v1" route="r13" depart="1292" />
    <vehicle id="up_438" type="v1" route="r42" depart="1292" />
    <vehicle id="right_439" type="v1" route="r13" depart="1293" />
    <vehicle id="right_440" type="v1" route="r13" depart="1294" />
    <vehicle id="up_441" type="v1" route="r42" depart="1294" />
    <vehicle id="right_442" type="v1" route="r13" depart="1295" />
    <vehicle id="up_443" type="v1" route="r42" depart="1295" />
    <vehicle id="up_444" type="v1" route="r42" depart="1299" />
    <vehicle id="right_445" type="v1" route="r13" depart="1303" />
    <vehicle id="right_446" type="v1" route="r13" depart="1304" />
    <vehicle id="right_447" type="v1" route="r13" depart="1310" />
    <vehicle id="up_448" type="v1" route="r42" depart="1310" />
    <vehicle id="up_449" type="v1" route="r42" depart="1314" />
    <vehicle id="up_450" type="v1" route="r42" depart="1315" />
    <vehicle id="up_451" type="v1" route="r42" depart="1317" />
    <vehicle id="up_452" type="v1" route="r42" depart="1318" />
    <vehicle id="up_453" type="v1" route="r42" depart="1319" />
    <vehicle id="right_454" type="v1" route="r13" depart="1322" />
    <vehicle id="up_455" type="v1" route="r42" depart="1323" />
    <vehicle id="right_456" type="v1" route="r13" depart="1330" />
    <vehicle id="up_457" type="v1" route="r42" depart="1334" />
    <vehicle id="up_458" type="v1" route="r42" depart="1336" />
    <vehicle id="right_459" type="v1" route="r13" depart="1341" />
    <vehicle id="up_460" type="v1" route="r42" depart="1341" />