<routes>
        <vType id="v1" accel="2.6" decel="4.5" sigma="0.5" length="5" minGap="1" maxSpeed="55" guiShape="passenger"/>

        <route id="r13" edges="96027913#0 96027913#2 30186293 311389510#1" />
        <route id="r42" edges="-355113043#1 -24626686#2 -24626686#1 -34992983#3 -34992983#1" />
    <vehicle id="right_0" type="v1" route="r13" depart="1" />
    <vehicle id="up_1" type="v1" route="r42" depart="4" />
    <vehicle id="up_2" type="v1" route="r42" depart="6" />
    <vehicle id="right_3" type="v1" route="r13" depart="8" />
    <vehicle id="up_4" type="v1" route="r42" depart="9" />
    <vehicle id="up_5" type="v1" route="r42" depart="13" />
    <vehicle id="up_6" type="v1" route="r42" depart="16" />
    <vehicle id="right_7" type="v1" route="r13" depart="18" />
    <vehicle id="up_8" type="v1" route="r42" depart="18" />
    <vehicle id="right_9" type="v1" route="r13" depart="20" />
    <vehicle id="up_10" type="v1" route="r42" depart="23" />
    <vehicle id="up_11" type="v1" route="r42" depart="25" />
    <vehicle id="up_12" type="v1" route="r42" depart="26" />
    <vehicle id="right_13" type="v1" route="r13" depart="27" />
    <vehicle id="up_14" type="v1" route="r42" depart="27" />
    <vehicle id="right_15" type="v1" route="r13" depart="30" />
    <vehicle id="up_16" type="v1" route="r42" depart="30" />
    <vehicle id="right_17" type="v1" route="r13" depart="31" />
    <vehicle id="up_18" type="v1" route="r42" depart="38" />
    <vehicle id="right_19" type="v1" route="r13" depart="39" />
    <vehicle id="right_20" type="v1" route="r13" depart="42" />
    <vehicle id="right_21" type="v1" route="r13" depart="46" />
    <vehicle id="right_22" type="v1" route="r13" depart="50" />
    <vehicle id="up_23" type="v1" route="r42" depart="50" />
    <vehicle id="up_24" type="v1" route="r42" depart="52" />
    <vehicle id="up_25" type="v1" route="r42" depart="54" />
    <vehicle id="up_26" type="v1" route="r42" depart="55" />
    <vehicle id="right_27" type="v1" route="r13" depart="56" />
    <vehicle id="up_28" type="v1" route="r42" depart="57" />
    <vehicle id="right_29" type="v1" route="r13" depart="58" />
    <vehicle id="up_30" type="v1" route="r42" depart="61" />
    <vehicle id="right_31" type="v1" route="r13" depart="62" />
    <vehicle id="up_32" type="v1" route="r42" depart="63" />
    <vehicle id="up_33" type="v1" route="r42" depart="64" />
    <vehicle id="right_34" type="v1" route="r13" depart="66" />
    <vehicle id="up_35" type="v1" route="r42" depart="70" />
    <vehicle id="up_36" type="v1" route="r42" depart="74" />
    <vehicle id="up_37" type="v1" route="r42" depart="81" />
    <vehicle id="up_38" type="v1" route="r42" depart="84" />
    <vehicle id="up_39" type="v1" route="r42" depart="87" />
    <vehicle id="right_40" type="v1" route="r13" depart="89" />
    <vehicle id="up_41" type="v1" route="r42" depart="90" />
    <vehicle id="right_42" type="v1" route="r13" depart="93" />
    <vehicle id="right_43" type="v1" route="r13" depart="95" />
    <vehicle id="up_44" type="v1" route="r42" depart="96" />
    <vehicle id="right_45" type="v1" route="r13" depart="97" />
    <vehicle id="up_46" type="v1" route="r42" depart="97" />
    <vehicle id="right_47" type="v1" route="r13" depart="103" />
    <vehicle id="up_48" type="v1" route="r42" depart="104" />
    <vehicle id="up_49" type="v1" route="r42" depart="108" />
    <vehicle id="up_50" type="v1" route="r42" depart="109" />
    <vehicle id="up_51" type="v1" route="r42" depart="113" />
    <vehicle id="right_52" type="v1" route="r13" depart="114" />
    <vehicle id="right_53" type="v1" route="r13" depart="115" />
    <vehicle id="up_54" type="v1" route="r42" depart="119" />
    <vehicle id="up_55" type="v1" route="r42" depart="122" />
    <vehicle id="right_56" type="v1" route="r13" depart="128" />
    <vehicle id="up_57" type="v1" route="r42" depart="128" />
    <vehicle id="right_58" type="v1" route="r13" depart="130" />
    <vehicle id="up_59" type="v1" route="r42" depart="130" />
    <vehicle id="up_60" type="v1" route="r42" depart="137" />
    <vehicle id="right_61" type="v1" route="r13" depart="138" />
    <vehicle id="up_62" type="v1" route="r42" depart="138" />
    <vehicle id="up_63" type="v1" route="r42" depart="140" />
    <vehicle id="up_64" type="v1" route="r42" depart="141" />
    <vehicle id="up_65" type="v1" route="r42" depart="142" />
    <vehicle id="up_66" type="v1" route="r42" depart="144" />
    <vehicle id="up_67" type="v1" route="r42" depart="146" />
    <vehicle id="right_68" type="v1" route="r13" depart="153" />
    <vehicle id="up_69" type="v1" route="r42" depart="154" />
    <vehicle id="up_70" type="v1" route="r42" depart="155" />
    <vehicle id="right_71" type="v1" route="r13" depart="160" />
    <vehicle id="up_72" type="v1" route="r42" depart="161" />
    <vehicle id="up_73" type="v1" route="r42" depart="162" />
    <vehicle id="right_74" type="v1" route="r13" depart="165" />
    <vehicle id="up_75" type="v1" route="r42" depart="167" />
    <vehicle id="up_76" type="v1" route="r42" depart="170" />
    <vehicle id="up_77" type="v1" route="r42" depart="171" />
    <vehicle id="up_78" type="v1" route="r42" depart="176" />
    <vehicle id="up_79" type="v1" route="r42" depart="177" />
    <vehicle id="up_80" type="v1" route="r42" depart="178" />
    <vehicle id="up_81" type="v1" route="r42" depart="179" />
    <vehicle id="up_82" type="v1" route="r42" depart="180" />
    <vehicle id="right_83" type="v1" route="r13" depart="181" />
    <vehicle id="up_84" type="v1" route="r42" depart="184" />
    <vehicle id="right_85" type="v1" route="r13" depart="185" />
    <vehicle id="up_86" type="v1" route="r42" depart="185" />
    <vehicle id="up_87" type="v1" route="r42" depart="196" />
    <vehicle id="up_88" type="v1" route="r42" depart="203" />
    <vehicle id="right_89" type="v1" route="r13" depart="210" />
    <vehicle id="right_90" type="v1" route="r13" depart="215" />
    <vehicle id="up_91" type="v1" route="r42" depart="216" />
    <vehicle id="up_92" type="v1" route="r42" depart="222" />
    <vehicle id="up_93" type="v1" route="r42" depart="223" />
    <vehicle id="right_94" type="v1" route="r13" depart="224" />
    <vehicle id="up_95" type="v1" route="r42" depart="224" />
    <vehicle id="right_96" type="v1" route="r13" depart="228" />
    <vehicle id="right_97" type="v1" route="r13" depart="231" />
    <vehicle id="up_98" type="v1" route="r42" depart="232" />
    <vehicle id="up_99" type="v1" route="r42" depart="239" />
    <vehicle id="up_100" type="v1" route="r42" depart="242" />
    <vehicle id="up_101" type="v1" route="r42" depart="243" />
    <vehicle id="right_102" type="v1" route="r13" depart="244" />
    <vehicle id="up_103" type="v1" route="r42" depart="245" />
    <vehicle id="up_104" type="v1" route="r42" depart="246" />
    <vehicle id="up_105" type="v1" route="r42" depart="252" />
    <vehicle id="right_106" type="v1" route="r13" depart="255" />
    <vehicle id="up_107" type="v1" route="r42" depart="255" />
    <vehicle id="right_108" type="v1" route="r13" depart="259" />
    <vehicle id="up_109" type="v1" route="r42" depart="259" />
    <vehicle id="right_110" type="v1" route="r13" depart="262" />
    <vehicle id="up_111" type="v1" route="r42" depart="262" />
    <vehicle id="up_112" type="v1" route="r42" depart="263" />
    <vehicle id="up_113" type="v1" route="r42" depart="264" />
    <vehicle id="up_114" type="v1" route="r42" depart="265" />
    <vehicle id="right_115" type="v1" route="r13" depart="266" />
    <vehicle id="right_116" type="v1" route="r13" depart="267" />
    <vehicle id="right_117" type="v1" route="r13" depart="268" />
    <vehicle id="right_118" type="v1" route="r13" depart="269" />
    <vehicle id="up_119" type="v1" route="r42" depart="271" />
    <vehicle id="right_120" type="v1" route="r13" depart="272" />
    <vehicle id="up_121" type="v1" route="r42" depart="275" />
    <vehicle id="up_122" type="v1" route="r42" depart="277" />
    <vehicle id="up_123" type="v1" route="r42" depart="280" />
    <vehicle id="right_124" type="v1" route="r13" depart="284" />
    <vehicle id="up_125" type="v1" route="r42" depart="285" />
    <vehicle id="right_126" type="v1" route="r13" depart="286" />
    <vehicle id="right_127" type="v1" route="r13" depart="293" />
    <vehicle id="right_128" type="v1" route="r13" depart="294" />
    <vehicle id="up_129" type="v1" route="r42" depart="295" />
    <vehicle id="right_130" type="v1" route="r13" depart="305" />
    <vehicle id="up_131" type="v1" route="r42" depart="307" />
    <vehicle id="up_132" type="v1" route="r42" depart="310" />
    <vehicle id="right_133" type="v1" route="r13" depart="312" />
    <vehicle id="up_134" type="v1" route="r42" depart="315" />
    <vehicle id="up_135" type="v1" route="r42" depart="320" />
    <vehicle id="up_136" type="v1" route="r42" depart="322" />
    <vehicle id="up_137" type="v1" route="r42" depart="323" />
    <vehicle id="right_138" type="v1" route="r13" depart="325" />
    <vehicle id="up_139" type="v1" route="r42" depart="329" />
    <vehicle id="up_140" type="v1" route="r42" depart="336" />
    <vehicle id="up_141" type="v1" route="r42" depart="337" />
    <vehicle id="right_142" type="v1" route="r13" depart="339" />
    <vehicle id="up_143" type="v1" route="r42" depart="339" />
    <vehicle id="right_144" type="v1" route="r13" depart="340" />
    <vehicle id="up_145" type="v1" route="r42" depart="340" />
    <vehicle id="right_146" type="v1" route="r13" depart="341" />
    <vehicle id="right_147" type="v1" route="r13" depart="343" />
    <vehicle id="up_148" type="v1" route="r42" depart="344" />
    <vehicle id="up_149" type="v1" route="r42" depart="345" />
    <vehicle id="up_150" type="v1" route="r42" depart="349" />
    <vehicle id="right_151" type="v1" route="r13" depart="351" />
    <vehicle id="up_152" type="v1" route="r42" depart="351" />
    <vehicle id="up_153" type="v1" route="r42" depart="354" />
    <vehicle id="right_154" type="v1" route="r13" depart="355" />
    <vehicle id="right_155" type="v1" route="r13" depart="356" />
    <vehicle id="up_156" type="v1" route="r42" depart="359" />
    <vehicle id="right_157" type="v1" route="r13" depart="361" />
    <vehicle id="up_158" type="v1" route="r42" depart="361" />
    <vehicle id="right_159" type="v1" route="r13" depart="362" />
    <vehicle id="up_160" type="v1" route="r42" depart="362" />
    <vehicle id="right_161" type="v1" route="r13" depart="373" />
    <vehicle id="up_162" type="v1" route="r42" depart="374" />
    <vehicle id="up_163" type="v1" route="r42" depart="377" />
    <vehicle id="right_164" type="v1" route="r13" depart="379" />
    <vehicle id="up_165" type="v1" route="r42" depart="383" />
    <vehicle id="right_166" type="v1" route="r13" depart="385" />
    <vehicle id="up_167" type="v1" route="r42" depart="390" />
    <vehicle id="right_168" type="v1" route="r13" depart="391" />
    <vehicle id="up_169" type="v1" route="r42" depart="391" />
    <vehicle id="up_170" type="v1" route="r42" depart="394" />
    <vehicle id="up_171" type="v1" route="r42" depart="397" />
    <vehicle id="up_172" type="v1" route="r42" depart="400" />
    <vehicle id="up_173" type="v1" route="r42" depart="402" />
    <vehicle id="up_174" type="v1" route="r42" depart="404" />
    <vehicle id="up_175" type="v1" route="r42" depart="409" />
    <vehicle id="up_176" type="v1" route="r42" depart="414" />
    <vehicle id="up_177" type="v1" route="r42" depart="415" />
    <vehicle id="right_178" type="v1" route="r13" depart="419" />
    <vehicle id="up_179" type="v1" route="r42" depart="422" />
    <vehicle id="up_180" type="v1" route="r42" depart="424" />
    <vehicle id="right_181" type="v1" route="r13" depart="426" />
    <vehicle id="up_182" type="v1" route="r42" depart="433" />
    <vehicle id="up_183" type="v1" route="r42" depart="437" />
    <vehicle id="right_184" type="v1" route="r13" depart="439" />
    <vehicle id="up_185" type="v1" route="r42" depart="444" />
    <vehicle id="up_186" type="v1" route="r42" depart="447" />
    <vehicle id="up_187" type="v1" route="r42" depart="450" />
    <vehicle id="right_188" type="v1" route="r13" depart="451" />
    <vehicle id="up_189" type="v1" route="r42" depart="451" />
    <vehicle id="right_190" type="v1" route="r13" depart="453" />
    <vehicle id="right_191" type="v1" route="r13" depart="457" />
    <vehicle id="up_192" type="v1" route="r42" depart="458" />
    <vehicle id="right_193" type="v1" route="r13" depart="460" />
    <vehicle id="up_194" type="v1" route="r42" depart="462" />
    <vehicle id="right_195" type="v1" route="r13" depart="463" />
    <vehicle id="right_196" type="v1" route="r13" depart="469" />
    <vehicle id="up_197" type="v1" route="r42" depart="469" />
    <vehicle id="right_198" type="v1" route="r13" depart="471" />
    <vehicle id="up_199" type="v1" route="r42" depart="472" />
    <vehicle id="up_200" type="v1" route="r42" depart="473" />
    <vehicle id="up_201" type="v1" route="r42" depart="475" />
    <vehicle id="up_202" type="v1" route="r42" depart="477" />
    <vehicle id="right_203" type="v1" route="r13" depart="480" />
    <vehicle id="up_204" type="v1" route="r42" depart="487" />
    <vehicle id="up_205" type="v1" route="r42" depart="488" />
    <vehicle id="right_206" type="v1" route="r13" depart="492" />
    <vehicle id="up_207" type="v1" route="r42" depart="493" />
    <vehicle id="up_208" type="v1" route="r42" depart="494" />
    <vehicle id="up_209" type="v1" route="r42" depart="503" />
    <vehicle id="right_210" type="v1" route="r13" depart="506" />
    <vehicle id="up_211" type="v1" route="r42" depart="506" />
    <vehicle id="up_212" type="v1" route="r42" depart="509" />
    <vehicle id="right_213" type="v1" route="r13" depart="511" />
    <vehicle id="up_214" type="v1" route="r42" depart="517" />
    <vehicle id="up_215" type="v1" route="r42" depart="520" />
    <vehicle id="right_216" type="v1" route="r13" depart="521" />
    <vehicle id="right_217" type="v1" route="r13" depart="522" />
    <vehicle id="up_218" type="v1" route="r42" depart="523" />
    <vehicle id="right_219" type="v1" route="r13" depart="527" />
    <vehicle id="up_220" type="v1" route="r42" depart="529" />
    <vehicle id="right_221" type="v1" route="r13" depart="532" />
    <vehicle id="right_222" type="v1" route="r13" depart="533" />
    <vehicle id="right_223" type="v1" route="r13" depart="541" />
    <vehicle id="up_224" type="v1" route="r42" depart="543" />
    <vehicle id="right_225" type="v1" route="r13" depart="546" />
    <vehicle id="up_226" type="v1" route="r42" depart="551" />
    <vehicle id="up_227" type="v1" route="r42" depart="553" />
    <vehicle id="up_228" type="v1" route="r42" depart="556" />
    <vehicle id="right_229" type="v1" route="r13" depart="561" />
    <vehicle id="up_230" type="v1" route="r42" depart="562" />
    <vehicle id="up_231" type="v1" route="r42" depart="564" />
    <vehicle id="right_232" type="v1" route="r13" depart="565" />
    <vehicle id="up_233" type="v1" route="r42" depart="565" />
    <vehicle id="up_234" type="v1" route="r42" depart="572" />
    <vehicle id="up_235" type="v1" route="r42" depart="578" />
    <vehicle id="right_236" type="v1" route="r13" depart="585" />
    <vehicle id="up_237" type="v1" route="r42" depart="588" />
    <vehicle id="right_238" type="v1" route="r13" depart="590" />
    <vehicle id="right_239" type="v1" route="r13" depart="591" />
    <vehicle id="right_240" type="v1" route="r13" depart="592" />
    <vehicle id="right_241" type="v1" route="r13" depart="593" />
    <vehicle id="up_242" type="v1" route="r42" depart="596" />
    <vehicle id="up_243" type="v1" route="r42" depart="598" />
    <vehicle id="up_244" type="v1" route="r42" depart="601" />
    <vehicle id="up_245" type="v1" route="r42" depart="602" />
    <vehicle id="up_246" type="v1" route="r42" depart="608" />
    <vehicle id="up_247" type="v1" route="r42" depart="611" />
    <vehicle id="right_248" type="v1" route="r13" depart="614" />
    <vehicle id="up_249" type="v1" route="r42" depart="616" />
    <vehicle id="right_250" type="v1" route="r13" depart="618" />
    <vehicle id="up_251" type="v1" route="r42" depart="618" />
    <vehicle id="right_252" type="v1" route="r13" depart="620" />
    <vehicle id="right_253" type="v1" route="r13" depart="623" />
    <vehicle id="up_254" type="v1" route="r42" depart="629" />
    <vehicle id="right_255" type="v1" route="r13" depart="636" />
    <vehicle id="up_256" type="v1" route="r42" depart="636" />
    <vehicle id="right_257" type="v1" route="r13" depart="644" />
    <vehicle id="up_258" type="v1" route="r42" depart="644" />
    <vehicle id="right_259" type="v1" route="r13" depart="656" />
    <vehicle id="up_260" type="v1" route="r42" depart="661" />
    <vehicle id="right_261" type="v1" route="r13" depart="663" />
    <vehicle id="up_262" type="v1" route="r42" depart="664" />
    <vehicle id="right_263" type="v1" route="r13" depart="668" />
    <vehicle id="right_264" type="v1" route="r13" depart="669" />
    <vehicle id="right_265" type="v1" route="r13" depart="674" />
    <vehicle id="right_266" type="v1" route="r13" depart="676" />
    <vehicle id="up_267" type="v1" route="r42" depart="676" />
    <vehicle id="right_268" type="v1" route="r13" depart="679" />
    <vehicle id="up_269" type="v1" route="r42" depart="679" />
    <vehicle id="right_270" type="v1" route="r13" depart="683" />
    <vehicle id="up_271" type="v1" route="r42" depart="683" />
    <vehicle id="right_272" type="v1" route="r13" depart="685" />
    <vehicle id="up_273" type="v1" route="r42" depart="685" />
    <vehicle id="up_274" type="v1" route="r42" depart="686" />
    <vehicle id="up_275" type="v1" route="r42" depart="688" />
    <vehicle id="right_276" type="v1" route="r13" depart="690" />
    <vehicle id="up_277" type="v1" route="r42" depart="690" />
    <vehicle id="up_278" type="v1" route="r42" depart="691" />
    <vehicle id="right_279" type="v1" route="r13" depart="697" />
    <vehicle id="up_280" type="v1" route="r42" depart="700" />
    <vehicle id="right_281" type="v1" route="r13" depart="702" />
    <vehicle id="up_282" type="v1" route="r42" depart="703" />
    <vehicle id="up_283" type="v1" route="r42" depart="704" />
    <vehicle id="right_284" type="v1" route="r13" depart="712" />
    <vehicle id="right_285" type="v1" route="r13" depart="713" />
    <vehicle id="up_286" type="v1" route="r42" depart="714" />
    <vehicle id="right_287" type="v1" route="r13" depart="715" />
    <vehicle id="up_288" type="v1" route="r42" depart="715" />
    <vehicle id="up_289" type="v1" route="r42" depart="728" />
    <vehicle id="right_290" type="v1" route="r13" depart="729" />
    <vehicle id="up_291" type="v1" route="r42" depart="733" />
    <vehicle id="right_292" type="v1" route="r13" depart="734" />
    <vehicle id="right_293" type="v1" route="r13" depart="736" />
    <vehicle id="right_294" type="v1" route="r13" depart="737" />
    <vehicle id="up_295" type="v1" route="r42" depart="737" />
    <vehicle id="right_296" type="v1" route="r13" depart="742" />
    <vehicle id="right_297" type="v1" route="r13" depart="743" />
    <vehicle id="right_298" type="v1" route="r13" depart="744" />
    <vehicle id="up_299" type="v1" route="r42" depart="746" />
    <vehicle id="up_300" type="v1" route="r42" depart="749" />
    <vehicle id="right_301" type="v1" route="r13" depart="750" />
    <vehicle id="right_302" type="v1" route="r13" depart="752" />
    <vehicle id="right_303" type="v1" route="r13" depart="753" />
    <vehicle id="right_304" type="v1" route="r13" depart="756" />
    <vehicle id="up_305" type="v1" route="r42" depart="757" />
    <vehicle id="right_306" type="v1" route="r13" depart="759" />
    <vehicle id="up_307" type="v1" route="r42" depart="762" />
    <vehicle id="up_308" type="v1" route="r42" depart="764" />
    <vehicle id="up_309" type="v1" route="r42" depart="771" />
    <vehicle id="right_310" type="v1" route="r13" depart="772" />
    <vehicle id="up_311" type="v1" route="r42" depart="774" />
    <vehicle id="up_312" type="v1" route="r42" depart="775" />
    <vehicle id="up_313" type="v1" route="r42" depart="783" />
    <vehicle id="right_314" type="v1" route="r13" depart="786" />
    <vehicle id="right_315" type="v1" route="r13" depart="787" />
    <vehicle id="right_316" type="v1" route="r13" depart="788" />
    <vehicle id="up_317" type="v1" route="r42" depart="796" />
    <vehicle id="up_318" type="v1" route="r42" depart="801" />
    <vehicle id="up_319" type="v1" route="r42" depart="802" />
    <vehicle id="right_320" type="v1" route="r13" depart="805" />
    <vehicle id="up_321" type="v1" route="r42" depart="806" />
    <vehicle id="right_322" type="v1" route="r13" depart="807" />
    <vehicle id="up_323" type="v1" route="r42" depart="810" />
    <vehicle id="right_324" type="v1" route="r13" depart="812" />
    <vehicle id="up_325" type="v1" route="r42" depart="816" />
    <vehicle id="up_326" type="v1" route="r42" depart="817" />
    <vehicle id="right_327" type="v1" route="r13" depart="826" />
    <vehicle id="right_328" type="v1" route="r13" depart="828" />
    <vehicle id="right_329" type="v1" route="r13" depart="829" />
    <vehicle id="right_330" type="v1" route="r13" depart="832" />
    <vehicle id="up_331" type="v1" route="r42" depart="836" />
    <vehicle id="right_332" type="v1" route="r13" depart="839" />
    <vehicle id="right_333" type="v1" route="r13" depart="840" />
    <vehicle id="up_334" type="v1" route="r42" depart="842" />
    <vehicle id="right_335" type="v1" route="r13" depart="843" />
    <vehicle id="right_336" type="v1" route="r13" depart="846" />
    <vehicle id="right_337" type="v1" route="r13" depart="850" />
    <vehicle id="up_338" type="v1" route="r42" depart="850" />
    <vehicle id="up_339" type="v1" route="r42" depart="851" />
    <vehicle id="up_340" type="v1" route="r42" depart="852" />
    <vehicle id="right_341" type="v1" route="r13" depart="854" />
    <vehicle id="up_342" type="v1" route="r42" depart="855" />
    <vehicle id="up_343" type="v1" route="r42" depart="856" />
    <vehicle id="up_344" type="v1" route="r42" depart="859" />
    <vehicle id="up_345" type="v1" route="r42" depart="860" />
    <vehicle id="up_346" type="v1" route="r42" depart="861" />
    <vehicle id="up_347" type="v1" route="r42" depart="862" />
    <vehicle id="up_348" type="v1" route="r42" depart="865" />
    <vehicle id="right_349" type="v1" route="r13" depart="867" />
    <vehicle id="right_350" type="v1" route="r13" depart="868" />
    <vehicle id="right_351" type="v1" route="r13" depart="870" />
    <vehicle id="up_352" type="v1" route="r42" depart="871" />
    <vehicle id="up_353" type="v1" route="r42" depart="872" />
    <vehicle id="up_354" type="v1" route="r42" depart="873" />
    <vehicle id="up_355" type="v1" route="r42" depart="879" />
    <vehicle id="right_356" type="v1" route="r13" depart="880" />
    <vehicle id="right_357" type="v1" route="r13" depart="882" />
    <vehicle id="up_358" type="v1" route="r42" depart="883" />
    <vehicle id="right_359" type="v1" route="r13" depart="884" />
    <vehicle id="right_360" type="v1" route="r13" depart="885" />
    <vehicle id="right_361" type="v1" route="r13" depart="886" />
    <vehicle id="right_362" type="v1" route="r13" depart="889" />
    <vehicle id="up_363" type="v1" route="r42" depart="890" />
    <vehicle id="right_364" type="v1" route="r13" depart="891" />
    <vehicle id="right_365" type="v1" route="r13" depart="895" />
    <vehicle id="up_366" type="v1" route="r42" depart="900" />
    <vehicle id="right_367" type="v1" route="r13" depart="910" />
    <vehicle id="up_368" type="v1" route="r42" depart="910" />
    <vehicle id="up_369" type="v1" route="r42" depart="912" />
    <vehicle id="right_370" type="v1" route="r13" depart="914" />
    <vehicle id="up_371" type="v1" route="r42" depart="920" />
    <vehicle id="up_372" type="v1" route="r42" depart="926" />
    <vehicle id="up_373" type="v1" route="r42" depart="927" />
    <vehicle id="right_374" type="v1" route="r13" depart="929" />
    <vehicle id="up_375" type="v1" route="r42" depart="929" />
    <vehicle id="right_376" type="v1" route="r13" depart="930" />
    <vehicle id="right_377" type="v1" route="r13" depart="934" />
    <vehicle id="up_378" type="v1" route="r42" depart="939" />
    <vehicle id="right_379" type="v1" route="r13" depart="947" />
    <vehicle id="right_380" type="v1" route="r13" depart="948" />
    <vehicle id="right_381" type="v1" route="r13" depart="949" />
    <vehicle id="right_382" type="v1" route="r13" depart="950" />
    <vehicle id="up_383" type="v1" route="r42" depart="950" />
    <vehicle id="up_384" type="v1" route="r42" depart="951" />
    <vehicle id="up_385" type="v1" route="r42" depart="953" />
    <vehicle id="up_386" type="v1" route="r42" depart="956" />
    <vehicle id="up_387" type="v1" route="r42" depart="957" />
    <vehicle id="right_388" type="v1" route="r13" depart="958" />
    <vehicle id="up_389" type="v1" route="r42" depart="958" />
    <vehicle id="up_390" type="v1" route="r42" depart="959" />
    <vehicle id="right_391" type="v1" route="r13" depart="966" />
    <vehicle id="up_392" type="v1" route="r42" depart="968" />
    <vehicle id="up_393" type="v1" route="r42" depart="969" />
    <vehicle id="right_394" type="v1" route="r13" depart="974" />
    <vehicle id="up_395" type="v1" route="r42" depart="975" />
    <vehicle id="right_396" type="v1" route="r13" depart="986" />
    <vehicle id="up_397" type="v1" route="r42" depart="986" />
    <vehicle id="right_398" type="v1" route="r13" depart="988" />
    <vehicle id="up_399" type="v1" route="r42" depart="990" />
    <vehicle id="up_400" type="v1" route="r42" depart="993" />
    <vehicle id="up_401" type="v1" route="r42" depart="998" />
    <vehicle id="right_402" type="v1" route="r13" depart="1002" />
    <vehicle id="up_403" type="v1" route="r42" depart="1003" />
    <vehicle id="right_404" type="v1" route="r13" depart="1008" />
    <vehicle id="right_405" type="v1" route="r13" depart="1010" />
    <vehicle id="up_406" type="v1" route="r42" depart="1010" />
    <vehicle id="up_407" type="v1" route="r42" depart="1011" />
    <vehicle id="up_408" type="v1" route="r42" depart="1012" />
    <vehicle id="right_409" type="v1" route="r13" depart="1017" />
    <vehicle id="right_410" type="v1" route="r13" depart="1018" />
    <vehicle id="right_411" type="v1" route="r13" depart="1024" />
    <vehicle id="right_412" type="v1" route="r13" depart="1027" />
    <vehicle id="right_413" type="v1" route="r13" depart="1028" />
    <vehicle id="right_414" type="v1" route="r13" depart="1037" />
    <vehicle id="right_415" type="v1" route="r13" depart="1038" />
    <vehicle id="up_416" type="v1" route="r42" depart="1038" />
    <vehicle id="up_417" type="v1" route="r42" depart="1039" />
    <vehicle id="right_418" type="v1" route="r13" depart="1042" />
    <vehicle id="up_419" type="v1" route="r42" depart="1043" />
    <vehicle id="right_420" type="v1" route="r13" depart="1044" />
    <vehicle id="up_421" type="v1" route="r42" depart="1044" />
    <vehicle id="up_422" type="v1" route="r42" depart="1046" />
    <vehicle id="right_423" type="v1" route="r13" depart="1051" />
    <vehicle id="up_424" type="v1" route="r42" depart="1058" />
    <vehicle id="up_425" type="v1" route="r42" depart="1059" />
    <vehicle id="right_426" type="v1" route="r13" depart="1062" />
    <vehicle id="right_427" type="v1" route="r13" depart="1063" />
    <vehicle id="right_428" type="v1" route="r13" depart="1069" />
    <vehicle id="up_429" type="v1" route="r42" depart="1077" />
    <vehicle id="up_430" type="v1" route="r42" depart="1078" />
    <vehicle id="right_431" type="v1" route="r13" depart="1081" />
    <vehicle id="right_432" type="v1" route="r13" depart="1093" />
    <vehicle id="right_433" type="v1" route="r13" depart="1094" />
    <vehicle id="up_434" type="v1" route="r42" depart="1094" />
    <vehicle id="up_435" type="v1" route="r42" depart="1097" />
    <vehicle id="up_436" type="v1" route="r42" depart="1098" />
    <vehicle id="up_437" type="v1" route="r42" depart="1100" />
    <vehicle id="up_438" type="v1" route="r42" depart="1102" />
    <vehicle id="up_439" type="v1" route="r42" depart="1104" />
    <vehicle id="up_440" type="v1" route="r42" depart="1105" />
    <vehicle id="right_441" type="v1" route="r13" depart="1106" />
    <vehicle id="up_442" type="v1" route="r42" depart="1106" />
    <vehicle id="up_443" type="v1" route="r42" depart="1109" />
    <vehicle id="right_444" type="v1" route="r13" depart="1111" />
    <vehicle id="up_445" type="v1" route="r42" depart="1114" />
    <vehicle id="up_446" type="v1" route="r42" depart="1115" />
    <vehicle id="up_447" type="v1" route="r42" depart="1116" />
    <vehicle id="up_448" type="v1" route="r42" depart="1118" />
    <vehicle id="right_449" type="v1" route="r13" depart="1128" />
    <vehicle id="up_450" type="v1" route="r42" depart="1129" />
    <vehicle id="up_451" type="v1" route="r42" depart="1142" />
    <vehicle id="up_452" type="v1" route="r42" depart="1143" />
    <vehicle id="up_453" type="v1" route="r42" depart="1144" />
    <vehicle id="up_454" type="v1" route="r42" depart="1145" />
    <vehicle id="up_455" type="v1" route="r42" depart="1146" />
    <vehicle id="up_456" type="v1" route="r42" depart="1147" />
    <vehicle id="right_457" type="v1" route="r13" depart="1151" />
    <vehicle id="right_458" type="v1" route="r13" depart="1152" />
    <vehicle id="up_459" type="v1" route="r42" depart="1153" />
    <vehicle id="right_460" type="v1" route="r13" depart="1159" />
    <vehicle id="right_461" type="v1" route="r13" depart="1160" />
    <vehicle id="up_462" type="v1" route="r42" depart="1162" />