<routes>
        <vType id="v1" accel="2.6" decel="4.5" sigma="0.5" length="5" minGap="1" maxSpeed="55" guiShape="passenger"/>

        <route id="r13" edges="96027913#0 96027913#2 30186293 311389510#1" />
        <route id="r42" edges="-355113043#1 -24626686#2 -24626686#1 -34992983#3 -34992983#1" />
    <vehicle id="right_0" type="v1" route="r13" depart="5" />
    <vehicle id="right_1" type="v1" route="r13" depart="6" />
    <vehicle id="right_2" type="v1" route="r13" depart="8" />
    <vehicle id="up_3" type="v1" route="r42" depart="10" />
    <vehicle id="right_4" type="v1" route="r13" depart="12" />
    <vehicle id="right_5" type="v1" route="r13" depart="13" />
    <vehicle id="up_6" type="v1" route="r42" depart="15" />
    <vehicle id="up_7" type="v1" route="r42" depart="16" />
    <vehicle id="up_8" type="v1" route="r42" depart="21" />
    <vehicle id="up_9" type="v1" route="r42" depart="25" />
    <vehicle id="up_10" type="v1" route="r42" depart="26" />
    <vehicle id="up_11" type="v1" route="r42" depart="27" />
    <vehicle id="right_12" type="v1" route="r13" depart="28" />
    <vehicle id="right_13" type="v1" route="r13" depart="34" />
    <vehicle id="up_14" type="v1" route="r42" depart="36" />
    <vehicle id="up_15" type="v1" route="r42" depart="38" />
    <vehicle id="right_16" type="v1" route="r13" depart="39" />
    <vehicle id="up_17" type="v1" route="r42" depart="39" />
    <vehicle id="up_18" type="v1" route="r42" depart="47" />
    <vehicle id="right_19" type="v1" route="r13" depart="49" />
    <vehicle id="up_20" type="v1" route="r42" depart="50" />
    <vehicle id="up_21" type="v1" route="r42" depart="52" />
    <vehicle id="up_22" type="v1" route="r42" depart="56" />
    <vehicle id="up_23" type="v1" route="r42" depart="59" />
    <vehicle id="right_24" type="v1" route="r13" depart="60" />
    <vehicle id="right_25" type="v1" route="r13" depart="64" />
    <vehicle id="right_26" type="v1" route="r13" depart="72" />
    <vehicle id="up_27" type="v1" route="r42" depart="72" />
    <vehicle id="right_28" type="v1" route="r13" depart="74" />
    <vehicle id="up_29" type="v1" route="r42" depart="77" />
    <vehicle id="right_30" type="v1" route="r13" depart="82" />
    <vehicle id="right_31" type="v1" route="r13" depart="85" />
    <vehicle id="right_32" type="v1" route="r13" depart="94" />
    <vehicle id="up_33" type="v1" route="r42" depart="94" />
    <vehicle id="up_34" type="v1" route="r42" depart="95" />
    <vehicle id="right_35" type="v1" route="r13" depart="98" />
    <vehicle id="right_36" type="v1" route="r13" depart="101" />
    <vehicle id="right_37" type="v1" route="r13" depart="103" />
    <vehicle id="right_38" type="v1" route="r13" depart="104" />
    <vehicle id="right_39" type="v1" route="r13" depart="112" />
    <vehicle id="up_40" type="v1" route="r42" depart="112" />
    <vehicle id="right_41" type="v1" route="r13" depart="113" />
    <vehicle id="up_42" type="v1" route="r42" depart="114" />
    <vehicle id="right_43" type="v1" route="r13" depart="121" />
    <vehicle id="up_44" type="v1" route="r42" depart="123" />
    <vehicle id="up_45" type="v1" route="r42" depart="125" />
    <vehicle id="right_46" type="v1" route="r13" depart="126" />
    <vehicle id="right_47" type="v1" route="r13" depart="128" />
    <vehicle id="up_48" type="v1" route="r42" depart="130" />
    <vehicle id="up_49" type="v1" route="r42" depart="131" />
    <vehicle id="up_50" type="v1" route="r42" depart="132" />
    <vehicle id="up_51" type="v1" route="r42" depart="134" />
    <vehicle id="up_52" type="v1" route="r42" depart="142" />
    <vehicle id="right_53" type="v1" route="r13" depart="145" />
    <vehicle id="right_54" type="v1" route="r13" depart="147" />
    <vehicle id="up_55" type="v1" route="r42" depart="148" />
    <vehicle id="up_56" type="v1" route="r42" depart="150" />
    <vehicle id="up_57" type="v1" route="r42" depart="153" />
    <vehicle id="up_58" type="v1" route="r42" depart="158" />
    <vehicle id="up_59" type="v1" route="r42" depart="159" />
    <vehicle id="right_60" type="v1" route="r13" depart="162" />
    <vehicle id="up_61" type="v1" route="r42" depart="172" />
    <vehicle id="right_62" type="v1" route="r13" depart="180" />
    <vehicle id="up_63" type="v1" route="r42" depart="180" />
    <vehicle id="up_64" type="v1" route="r42" depart="181" />
    <vehicle id="up_65" type="v1" route="r42" depart="183" />
    <vehicle id="up_66" type="v1" route="r42" depart="186" />
    <vehicle id="up_67" type="v1" route="r42" depart="188" />
    <vehicle id="right_68" type="v1" route="r13" depart="192" />
    <vehicle id="up_69" type="v1" route="r42" depart="192" />
    <vehicle id="up_70" type="v1" route="r42" depart="193" />
    <vehicle id="up_71" type="v1" route="r42" depart="194" />
    <vehicle id="up_72" type="v1" route="r42" depart="198" />
    <vehicle id="up_73" type="v1" route="r42" depart="213" />
    <vehicle id="up_74" type="v1" route="r42" depart="214" />
    <vehicle id="right_75" type="v1" route="r13" depart="218" />
    <vehicle id="up_76" type="v1" route="r42" depart="220" />
    <vehicle id="up_77" type="v1" route="r42" depart="221" />
    <vehicle id="right_78" type="v1" route="r13" depart="223" />
    <vehicle id="up_79" type="v1" route="r42" depart="227" />
    <vehicle id="up_80" type="v1" route="r42" depart="228" />
    <vehicle id="up_81" type="v1" route="r42" depart="236" />
    <vehicle id="right_82" type="v1" route="r13" depart="238" />
    <vehicle id="right_83" type="v1" route="r13" depart="240" />
    <vehicle id="right_84" type="v1" route="r13" depart="243" />
    <vehicle id="right_85" type="v1" route="r13" depart="251" />
    <vehicle id="right_86" type="v1" route="r13" depart="253" />
    <vehicle id="right_87" type="v1" route="r13" depart="254" />
    <vehicle id="up_88" type="v1" route="r42" depart="260" />
    <vehicle id="right_89" type="v1" route="r13" depart="270" />
    <vehicle id="right_90" type="v1" route="r13" depart="275" />
    <vehicle id="right_91" type="v1" route="r13" depart="276" />
    <vehicle id="right_92" type="v1" route="r13" depart="281" />
    <vehicle id="right_93" type="v1" route="r13" depart="284" />
    <vehicle id="right_94" type="v1" route="r13" depart="290" />
    <vehicle id="up_95" type="v1" route="r42" depart="297" />
    <vehicle id="up_96" type="v1" route="r42" depart="298" />
    <vehicle id="right_97" type="v1" route="r13" depart="299" />
    <vehicle id="up_98" type="v1" route="r42" depart="300" />
    <vehicle id="right_99" type="v1" route="r13" depart="301" />
    <vehicle id="right_100" type="v1" route="r13" depart="302" />
    <vehicle id="up_101" type="v1" route="r42" depart="302" />
    <vehicle id="right_102" type="v1" route="r13" depart="303" />
    <vehicle id="right_103" type="v1" route="r13" depart="315" />
    <vehicle id="right_104" type="v1" route="r13" depart="316" />
    <vehicle id="up_105" type="v1" route="r42" depart="319" />
    <vehicle id="up_106" type="v1" route="r42" depart="320" />
    <vehicle id="right_107" type="v1" route="r13" depart="324" />
    <vehicle id="up_108" type="v1" route="r42" depart="328" />
    <vehicle id="up_109" type="v1" route="r42" depart="332" />
    <vehicle id="up_110" type="v1" route="r42" depart="336" />
    <vehicle id="right_111" type="v1" route="r13" depart="343" />
    <vehicle id="right_112" type="v1" route="r13" depart="346" />
    <vehicle id="right_113" type="v1" route="r13" depart="350" />
    <vehicle id="right_114" type="v1" route="r13" depart="355" />
    <vehicle id="up_115" type="v1" route="r42" depart="358" />
    <vehicle id="up_116" type="v1" route="r42" depart="359" />
    <vehicle id="right_117" type="v1" route="r13" depart="361" />
    <vehicle id="right_118" type="v1" route="r13" depart="368" />
    <vehicle id="right_119" type="v1" route="r13" depart="372" />
    <vehicle id="right_120" type="v1" route="r13" depart="373" />
    <vehicle id="up_121" type="v1" route="r42" depart="375" />
    <vehicle id="up_122" type="v1" route="r42" depart="380" />
    <vehicle id="up_123" type="v1" route="r42" depart="391" />
    <vehicle id="up_124" type="v1" route="r42" depart="396" />
    <vehicle id="right_125" type="v1" route="r13" depart="399" />
    <vehicle id="right_126" type="v1" route="r13" depart="405" />
    <vehicle id="up_127" type="v1" route="r42" depart="405" />
    <vehicle id="right_128" type="v1" route="r13" depart="406" />
    <vehicle id="right_129" type="v1" route="r13" depart="413" />
    <vehicle id="up_130" type="v1" route="r42" depart="419" />
    <vehicle id="right_131" type="v1" route="r13" depart="421" />
    <vehicle id="right_132" type="v1" route="r13" depart="430" />
    <vehicle id="right_133" type="v1" route="r13" depart="436" />
    <vehicle id="right_134" type="v1" route="r13" depart="437" />
    <vehicle id="up_135" type="v1" route="r42" depart="439" />
    <vehicle id="right_136" type="v1" route="r13" depart="445" />
    <vehicle id="up_137" type="v1" route="r42" depart="458" />
    <vehicle id="up_138" type="v1" route="r42" depart="459" />
    <vehicle id="up_139" type="v1" route="r42" depart="460" />
    <vehicle id="up_140" type="v1" route="r42" depart="471" />
    <vehicle id="right_141" type="v1" route="r13" depart="473" />
    <vehicle id="right_142" type="v1" route="r13" depart="475" />
    <vehicle id="up_143" type="v1" route="r42" depart="480" />
    <vehicle id="up_144" type="v1" route="r42" depart="484" />
    <vehicle id="right_145" type="v1" route="r13" depart="488" />
    <vehicle id="right_146" type="v1" route="r13" depart="489" />
    <vehicle id="right_147" type="v1" route="r13" depart="491" />
    <vehicle id="right_148" type="v1" route="r13" depart="499" />
    <vehicle id="up_149" type="v1" route="r42" depart="499" />
    <vehicle id="up_150" type="v1" route="r42" depart="500" />
    <vehicle id="right_151" type="v1" route="r13" depart="504" />
    <vehicle id="right_152" type="v1" route="r13" depart="506" />
    <vehicle id="right_153" type="v1" route="r13" depart="507" />
    <vehicle id="right_154" type="v1" route="r13" depart="508" />
    <vehicle id="up_155" type="v1" route="r42" depart="512" />
    <vehicle id="up_156" type="v1" route="r42" depart="513" />
    <vehicle id="right_157" type="v1" route="r13" depart="517" />
    <vehicle id="up_158" type="v1" route="r42" depart="531" />
    <vehicle id="up_159" type="v1" route="r42" depart="535" />
    <vehicle id="up_160" type="v1" route="r42" depart="537" />
    <vehicle id="right_161" type="v1" route="r13" depart="545" />
    <vehicle id="up_162" type="v1" route="r42" depart="547" />
    <vehicle id="up_163" type="v1" route="r42" depart="549" />
    <vehicle id="right_164" type="v1" route="r13" depart="557" />
    <vehicle id="up_165" type="v1" route="r42" depart="558" />
    <vehicle id="up_166" type="v1" route="r42" depart="561" />
    <vehicle id="up_167" type="v1" route="r42" depart="562" />
    <vehicle id="up_168" type="v1" route="r42" depart="564" />
    <vehicle id="right_169" type="v1" route="r13" depart="566" />
    <vehicle id="right_170" type="v1" route="r13" depart="572" />
    <vehicle id="right_171" type="v1" route="r13" depart="573" />
    <vehicle id="up_172" type="v1" route="r42" depart="573" />
    <vehicle id="up_173" type="v1" route="r42" depart="577" />
    <vehicle id="up_174" type="v1" route="r42" depart="585" />
    <vehicle id="right_175" type="v1" route="r13" depart="588" />
    <vehicle id="up_176" type="v1" route="r42" depart="589" />
    <vehicle id="up_177" type="v1" route="r42" depart="590" />
    <vehicle id="right_178" type="v1" route="r13" depart="601" />
    <vehicle id="right_179" type="v1" route="r13" depart="605" />
    <vehicle id="right_180" type="v1" route="r13" depart="606" />
    <vehicle id="up_181" type="v1" route="r42" depart="609" />
    <vehicle id="up_182" type="v1" route="r42" depart="610" />
    <vehicle id="up_183" type="v1" route="r42" depart="611" />
    <vehicle id="right_184" type="v1" route="r13" depart="613" />
    <vehicle id="up_185" type="v1" route="r42" depart="613" />
    <vehicle id="right_186" type="v1" route="r13" depart="616" />
    <vehicle id="up_187" type="v1" route="r42" depart="629" />
    <vehicle id="right_188" type="v1" route="r13" depart="632" />
    <vehicle id="right_189" type="v1" route="r13" depart="635" />
    <vehicle id="right_190" type="v1" route="r13" depart="638" />
    <vehicle id="up_191" type="v1" route="r42" depart="640" />
    <vehicle id="right_192" type="v1" route="r13" depart="642" />
    <vehicle id="right_193" type="v1" route="r13" depart="646" />
    <vehicle id="up_194" type="v1" route="r42" depart="647" />
    <vehicle id="right_195" type="v1" route="r13" depart="648" />
    <vehicle id="right_196" type="v1" route="r13" depart="652" />
    <vehicle id="right_197" type="v1" route="r13" depart="653" />
    <vehicle id="right_198" type="v1" route="r13" depart="655" />
    <vehicle id="up_199" type="v1" route="r42" depart="657" />
    <vehicle id="right_200" type="v1" route="r13" depart="659" />
    <vehicle id="right_201" type="v1" route="r13" depart="661" />
    <vehicle id="right_202" type="v1" route="r13" depart="665" />
    <vehicle id="right_203" type="v1" route="r13" depart="666" />
    <vehicle id="right_204" type="v1" route="r13" depart="667" />
    <vehicle id="up_205" type="v1" route="r42" depart="667" />
    <vehicle id="right_206" type="v1" route="r13" depart="669" />
    <vehicle id="right_207" type="v1" route="r13" depart="672" />
    <vehicle id="right_208" type="v1" route="r13" depart="674" />
    <vehicle id="up_209" type="v1" route="r42" depart="675" />
    <vehicle id="right_210" type="v1" route="r13" depart="676" />
    <vehicle id="up_211" type="v1" route="r42" depart="681" />
    <vehicle id="right_212" type="v1" route="r13" depart="683" />
    <vehicle id="up_213" type="v1" route="r42" depart="684" />
    <vehicle id="right_214" type="v1" route="r13" depart="685" />
    <vehicle id="right_215" type="v1" route="r13" depart="686" />
    <vehicle id="right_216" type="v1" route="r13" depart="689" />
    <vehicle id="up_217" type="v1" route="r42" depart="694" />
    <vehicle id="up_218" type="v1" route="r42" depart="695" />
    <vehicle id="up_219" type="v1" route="r42" depart="698" />
    <vehicle id="up_220" type="v1" route="r42" depart="699" />
    <vehicle id="up_221" type="v1" route="r42" depart="702" />
    <vehicle id="up_222" type="v1" route="r42" depart="711" />
    <vehicle id="right_223" type="v1" route="r13" depart="715" />
    <vehicle id="right_224" type="v1" route="r13" depart="717" />
    <vehicle id="right_225" type="v1" route="r13" depart="728" />
    <vehicle id="up_226" type="v1" route="r42" depart="730" />
    <vehicle id="right_227" type="v1" route="r13" depart="733" />
    <vehicle id="right_228" type="v1" route="r13" depart="737" />
    <vehicle id="right_229" type="v1" route="r13" depart="739" />
    <vehicle id="up_230" type="v1" route="r42" depart="741" />
    <vehicle id="right_231" type="v1" route="r13" depart="742" />
    <vehicle id="up_232" type="v1" route="r42" depart="743" />
    <vehicle id="up_233" type="v1" route="r42" depart="745" />
    <vehicle id="up_234" type="v1" route="r42" depart="750" />
    <vehicle id="right_235" type="v1" route="r13" depart="761" />
    <vehicle id="right_236" type="v1" route="r13" depart="762" />
    <vehicle id="up_237" type="v1" route="r42" depart="763" />
    <vehicle id="up_238" type="v1" route="r42" depart="768" />
    <vehicle id="up_239" type="v1" route="r42" depart="775" />
    <vehicle id="up_240" type="v1" route="r42" depart="781" />
    <vehicle id="up_241" type="v1" route="r42" depart="782" />
    <vehicle id="up_242" type="v1" route="r42" depart="790" />
    <vehicle id="up_243" type="v1" route="r42" depart="799" />
    <vehicle id="right_244" type="v1" route="r13" depart="802" />
    <vehicle id="right_245" type="v1" route="r13" depart="803" />
    <vehicle id="right_246" type="v1" route="r13" depart="804" />
    <vehicle id="up_247" type="v1" route="r42" depart="805" />
    <vehicle id="right_248" type="v1" route="r13" depart="807" />
    <vehicle id="up_249" type="v1" route="r42" depart="815" />
    <vehicle id="right_250" type="v1" route="r13" depart="819" />
    <vehicle id="up_251" type="v1" route="r42" depart="820" />
    <vehicle id="right_252" type="v1" route="r13" depart="822" />
    <vehicle id="up_253" type="v1" route="r42" depart="822" />
    <vehicle id="right_254" type="v1" route="r13" depart="823" />
    <vehicle id="right_255" type="v1" route="r13" depart="824" />
    <vehicle id="right_256" type="v1" route="r13" depart="825" />
    <vehicle id="up_257" type="v1" route="r42" depart="828" />
    <vehicle id="up_258" type="v1" route="r42" depart="829" />
    <vehicle id="up_259" type="v1" route="r42" depart="830" />
    <vehicle id="right_260" type="v1" route="r13" depart="835" />
    <vehicle id="up_261" type="v1" route="r42" depart="835" />
    <vehicle id="up_262" type="v1" route="r42" depart="836" />
    <vehicle id="right_263" type="v1" route="r13" depart="837" />
    <vehicle id="right_264" type="v1" route="r13" depart="839" />
    <vehicle id="right_265" type="v1" route="r13" depart="842" />
    <vehicle id="right_266" type="v1" route="r13" depart="846" />
    <vehicle id="up_267" type="v1" route="r42" depart="847" />
    <vehicle id="up_268" type="v1" route="r42" depart="848" />
    <vehicle id="right_269" type="v1" route="r13" depart="849" />
    <vehicle id="up_270" type="v1" route="r42" depart="853" />
    <vehicle id="up_271" type="v1" route="r42" depart="856" />
    <vehicle id="up_272" type="v1" route="r42" depart="857" />
    <vehicle id="up_273" type="v1" route="r42" depart="858" />
    <vehicle id="right_274" type="v1" route="r13" depart="864" />
    <vehicle id="right_275" type="v1" route="r13" depart="865" />
    <vehicle id="up_276" type="v1" route="r42" depart="865" />
    <vehicle id="right_277" type="v1" route="r13" depart="866" />
    <vehicle id="right_278" type="v1" route="r13" depart="869" />
    <vehicle id="up_279" type="v1" route="r42" depart="869" />
    <vehicle id="up_280" type="v1" route="r42" depart="870" />
    <vehicle id="up_281" type="v1" route="r42" depart="873" />
    <vehicle id="right_282" type="v1" route="r13" depart="874" />
    <vehicle id="right_283" type="v1" route="r13" depart="875" />
    <vehicle id="up_284" type="v1" route="r42" depart="882" />
    <vehicle id="up_285" type="v1" route="r42" depart="883" />
    <vehicle id="right_286" type="v1" route="r13" depart="886" />
    <vehicle id="up_287" type="v1" route="r42" depart="888" />
    <vehicle id="up_288" type="v1" route="r42" depart="889" />
    <vehicle id="up_289" type="v1" route="r42" depart="891" />
    <vehicle id="up_290" type="v1" route="r42" depart="893" />
    <vehicle id="right_291" type="v1" route="r13" depart="895" />
    <vehicle id="right_292" type="v1" route="r13" depart="896" />
    <vehicle id="up_293" type="v1" route="r42" depart="900" />
    <vehicle id="up_294" type="v1" route="r42" depart="901" />
    <vehicle id="up_295" type="v1" route="r42" depart="908" />
    <vehicle id="right_296" type="v1" route="r13" depart="914" />
    <vehicle id="right_297" type="v1" route="r13" depart="921" />
    <vehicle id="up_298" type="v1" route="r42" depart="926" />
    <vehicle id="up_299" type="v1" route="r42" depart="927" />
    <vehicle id="right_300" type="v1" route="r13" depart="933" />
    <vehicle id="right_301" type="v1" route="r13" depart="934" />
    <vehicle id="right_302" type="v1" route="r13" depart="936" />
    <vehicle id="right_303" type="v1" route="r13" depart="938" />
    <vehicle id="up_304" type="v1" route="r42" depart="942" />
    <vehicle id="right_305" type="v1" route="r13" depart="953" />
    <vehicle id="up_306" type="v1" route="r42" depart="957" />
    <vehicle id="up_307" type="v1" route="r42" depart="959" />
    <vehicle id="right_308" type="v1" route="r13" depart="960" />
    <vehicle id="right_309" type="v1" route="r13" depart="963" />
    <vehicle id="up_310" type="v1" route="r42" depart="967" />
    <vehicle id="right_311" type="v1" route="r13" depart="969" />
    <vehicle id="right_312" type="v1" route="r13" depart="977" />
    <vehicle id="up_313" type="v1" route="r42" depart="979" />
    <vehicle id="up_314" type="v1" route="r42" depart="986" />
    <vehicle id="up_315" type="v1" route="r42" depart="987" />
    <vehicle id="right_316" type="v1" route="r13" depart="988" />
    <vehicle id="right_317" type="v1" route="r13" depart="991" />
    <vehicle id="up_318" type="v1" route="r42" depart="992" />
    <vehicle id="right_319" type="v1" route="r13" depart="999" />
    <vehicle id="right_320" type="v1" route="r13" depart="1000" />
    <vehicle id="right_321" type="v1" route="r13" depart="1001" />
    <vehicle id="right_322" type="v1" route="r13" depart="1007" />
    <vehicle id="up_323" type="v1" route="r42" depart="1008" />
    <vehicle id="up_324" type="v1" route="r42" depart="1014" />
    <vehicle id="right_325" type="v1" route="r13" depart="1016" />
    <vehicle id="up_326" type="v1" route="r42" depart="1017" />
    <vehicle id="up_327" type="v1" route="r42" depart="1018" />
    <vehicle id="up_328" type="v1" route="r42" depart="1019" />
    <vehicle id="right_329" type="v1" route="r13" depart="1029" />
    <vehicle id="right_330" type="v1" route="r13" depart="1031" />
    <vehicle id="right_331" type="v1" route="r13" depart="1035" />
    <vehicle id="up_332" type="v1" route="r42" depart="1048" />
    <vehicle id="right_333" type="v1" route="r13" depart="1050" />
    <vehicle id="up_334" type="v1" route="r42" depart="1052" />
    <vehicle id="right_335" type="v1" route="r13" depart="1054" />
    <vehicle id="right_336" type="v1" route="r13" depart="1057" />
    <vehicle id="up_337" type="v1" route="r42" depart="1060" />
    <vehicle id="right_338" type="v1" route="r13" depart="1061" />
    <vehicle id="right_339" type="v1" route="r13" depart="1063" />
    <vehicle id="up_340" type="v1" route="r42" depart="1063" />
    <vehicle id="right_341" type="v1" route="r13" depart="1066" />
    <vehicle id="up_342" type="v1" route="r42" depart="1069" />
    <vehicle id="right_343" type="v1" route="r13" depart="1077" />
    <vehicle id="right_344" type="v1" route="r13" depart="1078" />
    <vehicle id="right_345" type="v1" route="r13" depart="1079" />
    <vehicle id="up_346" type="v1" route="r42" depart="1080" />
    <vehicle id="up_347" type="v1" route="r42" depart="1081" />
    <vehicle id="right_348" type="v1" route="r13" depart="1083" />
    <vehicle id="up_349" type="v1" route="r42" depart="1087" />
    <vehicle id="up_350" type="v1" route="r42" depart="1088" />
    <vehicle id="up_351" type="v1" route="r42" depart="1090" />
    <vehicle id="right_352" type="v1" route="r13" depart="1092" />
    <vehicle id="right_353" type="v1" route="r13" depart="1094" />
    <vehicle id="right_354" type="v1" route="r13" depart="1095" />
    <vehicle id="right_355" type="v1" route="r13" depart="1101" />
    <vehicle id="up_356" type="v1" route="r42" depart="1108" />
    <vehicle id="up_357" type="v1" route="r42" depart="1111" />
    <vehicle id="up_358" type="v1" route="r42" depart="1112" />
    <vehicle id="up_359" type="v1" route="r42" depart="1113" />
    <vehicle id="right_360" type="v1" route="r13" depart="1115" />
    <vehicle id="right_361" type="v1" route="r13" depart="1116" />
    <vehicle id="right_362" type="v1" route="r13" depart="1118" />
    <vehicle id="right_363" type="v1" route="r13" depart="1129" />
    <vehicle id="right_364" type="v1" route="r13" depart="1133" />
    <vehicle id="up_365" type="v1" route="r42" depart="1133" />
    <vehicle id="up_366" type="v1" route="r42" depart="1135" />
    <vehicle id="up_367" type="v1" route="r42" depart="1136" />
    <vehicle id="up_368" type="v1" route="r42" depart="1146" />
    <vehicle id="up_369" type="v1" route="r42" depart="1147" />
    <vehicle id="up_370" type="v1" route="r42" depart="1148" />
    <vehicle id="up_371" type="v1" route="r42" depart="1150" />
    <vehicle id="right_372" type="v1" route="r13" depart="1151" />
    <vehicle id="up_373" type="v1" route="r42" depart="1156" />
    <vehicle id="right_374" type="v1" route="r13" depart="1157" />
    <vehicle id="right_375" type="v1" route="r13" depart="1158" />
    <vehicle id="up_376" type="v1" route="r42" depart="1164" />
    <vehicle id="up_377" type="v1" route="r42" depart="1173" />
    <vehicle id="up_378" type="v1" route="r42" depart="1174" />
    <vehicle id="right_379" type="v1" route="r13" depart="1175" />
    <vehicle id="right_380" type="v1" route="r13" depart="1177" />
    <vehicle id="right_381" type="v1" route="r13" depart="1178" />
    <vehicle id="up_382" type="v1" route="r42" depart="1185" />
    <vehicle id="right_383" type="v1" route="r13" depart="1187" />
    <vehicle id="up_384" type="v1" route="r42" depart="1188" />
    <vehicle id="right_385" type="v1" route="r13" depart="1190" />
    <vehicle id="right_386" type="v1" route="r13" depart="1202" />
    <vehicle id="right_387" type="v1" route="r13" depart="1214" />
    <vehicle id="up_388" type="v1" route="r42" depart="1220" />
    <vehicle id="up_389" type="v1" route="r42" depart="1221" />
    <vehicle id="up_390" type="v1" route="r42" depart="1222" />
    <vehicle id="up_391" type="v1" route="r42" depart="1232" />
    <vehicle id="right_392" type="v1" route="r13" depart="1241" />
    <vehicle id="right_393" type="v1" route="r13" depart="1253" />
    <vehicle id="up_394" type="v1" route="r42" depart="1254" />
    <vehicle id="up_395" type="v1" route="r42" depart="1255" />
    <vehicle id="up_396" type="v1" route="r42" depart="1256" />
    <vehicle id="up_397" type="v1" route="r42" depart="1257" />
    <vehicle id="up_398" type="v1" route="r42" depart="1258" />
    <vehicle id="up_399" type="v1" route="r42" depart="1261" />
    <vehicle id="up_400" type="v1" route="r42" depart="1265" />
    <vehicle id="up_401" type="v1" route="r42" depart="1266" />
    <vehicle id="right_402" type="v1" route="r13" depart="1280" />
    <vehicle id="up_403" type="v1" route="r42" depart="1281" />
    <vehicle id="up_404" type="v1" route="r42" depart="1286" />
    <vehicle id="right_405" type="v1" route="r13" depart="1287" />
    <vehicle id="right_406" type="v1" route="r13" depart="1288" />
    <vehicle id="up_407" type="v1" route="r42" depart="1291" />
    <vehicle id="right_408" type="v1" route="r13" depart="1293" />
    <vehicle id="up_409" type="v1" route="r42" depart="1293" />
    <vehicle id="up_410" type="v1" route="r42" depart="1294" />
    <vehicle id="up_411" type="v1" route="r42" depart="1300" />
    <vehicle id="right_412" type="v1" route="r13" depart="1301" />
    <vehicle id="up_413" type="v1" route="r42" depart="1303" />
    <vehicle id="up_414" type="v1" route="r42" depart="1304" />
    <vehicle id="up_415" type="v1" route="r42" depart="1308" />
    <vehicle id="up_416" type="v1" route="r42" depart="1311" />
    <vehicle id="up_417" type="v1" route="r42" depart="1312" />
    <vehicle id="right_418" type="v1" route="r13" depart="1313" />
    <vehicle id="up_419" type="v1" route="r42" depart="1313" />
    <vehicle id="right_420" type="v1" route="r13" depart="1316" />
    <vehicle id="right_421" type="v1" route="r13" depart="1319" />
    <vehicle id="right_422" type="v1" route="r13" depart="1320" />
    <vehicle id="right_423" type="v1" route="r13" depart="1322" />
    <vehicle id="right_424" type="v1" route="r13" depart="1323" />
    <vehicle id="right_425" type="v1" route="r13" depart="1328" />
    <vehicle id="right_426" type="v1" route="r13" depart="1331" />
    <vehicle id="up_427" type="v1" route="r42" depart="1331" />
    <vehicle id="right_428" type="v1" route="r13" depart="1334" />
    <vehicle id="right_429" type="v1" route="r13" depart="1335" />
    <vehicle id="right_430" type="v1" route="r13" depart="1336" />
    <vehicle id="right_431" type="v1" route="r13" depart="1341" />
    <vehicle id="up_432" type="v1" route="r42" depart="1350" />
    <vehicle id="right_433" type="v1" route="r13" depart="1353" />
    <vehicle id="right_434" type="v1" route="r13" depart="1358" />
    <vehicle id="up_435" type="v1" route="r42" depart="1360" />
    <vehicle id="up_436" type="v1" route="r42" depart="1364" />
    <vehicle id="right_437" type="v1" route="r13" depart="1365" />
    <vehicle id="up_438" type="v1" route="r42" depart="1377" />
    <vehicle id="right_439" type="v1" route="r13" depart="1380" />
    <vehicle id="up_440" type="v1" route="r42" depart="1381" />
    <vehicle id="up_441" type="v1" route="r42" depart="1382" />
    <vehicle id="right_442" type="v1" route="r13" depart="1384" />
    <vehicle id="up_443" type="v1" route="r42" depart="1384" />
    <vehicle id="up_444" type="v1" route="r42" depart="1385" />
    <vehicle id="up_445" type="v1" route="r42" depart="1390" />
    <vehicle id="right_446" type="v1" route="r13" depart="1391" />
    <vehicle id="up_447" type="v1" route="r42" depart="1391" />
    <vehicle id="right_448" type="v1" route="r13" depart="1392" />
    <vehicle id="up_449" type="v1" route="r42" depart="1401" />
    <vehicle id="right_450" type="v1" route="r13" depart="1409" />
    <vehicle id="up_451" type="v1" route="r42" depart="1413" />
    <vehicle id="right_452" type="v1" route="r13" depart="1414" />
    <vehicle id="up_453" type="v1" route="r42" depart="1424" />
    <vehicle id="up_454" type="v1" route="r42" depart="1427" />
    <vehicle id="right_455" type="v1" route="r13" depart="1428" />
    <vehicle id="up_456" type="v1" route="r42" depart="1429" />
    <vehicle id="right_457" type="v1" route="r13" depart="1436" />
    <vehicle id="up_458" type="v1" route="r42" depart="1438" />
    <vehicle id="up_459" type="v1" route="r42" depart="1440" />