<routes>
        <vType id="v1" accel="0.8" decel="4.5" sigma="0.5" length="5" minGap="2.5" maxSpeed="16.67" guiShape="passenger"/>
        
        <route id="r13" edges="e10 e03" />
        <route id="r42" edges="e40 e02" />
    <vehicle id="up_0" type="v1" route="r42" depart="1" />
    <vehicle id="right_1" type="v1" route="r13" depart="2" />
    <vehicle id="right_2" type="v1" route="r13" depart="3" />
    <vehicle id="right_3" type="v1" route="r13" depart="4" />
    <vehicle id="right_4" type="v1" route="r13" depart="5" />
    <vehicle id="right_5" type="v1" route="r13" depart="6" />
    <vehicle id="right_6" type="v1" route="r13" depart="7" />
    <vehicle id="right_7" type="v1" route="r13" depart="8" />
    <vehicle id="right_8" type="v1" route="r13" depart="9" />
    <vehicle id="right_9" type="v1" route="r13" depart="10" />
    <vehicle id="right_10" type="v1" route="r13" depart="11" />
    <vehicle id="up_11" type="v1" route="r42" depart="11" />
    <vehicle id="right_12" type="v1" route="r13" depart="12" />
    <vehicle id="right_13" type="v1" route="r13" depart="13" />
    <vehicle id="right_14" type="v1" route="r13" depart="14" />
    <vehicle id="right_15" type="v1" route="r13" depart="15" />
    <vehicle id="right_16" type="v1" route="r13" depart="16" />
    <vehicle id="right_17" type="v1" route="r13" depart="17" />
    <vehicle id="right_18" type="v1" route="r13" depart="18" />
    <vehicle id="up_19" type="v1" route="r42" depart="18" />
    <vehicle id="right_20" type="v1" route="r13" depart="19" />
    <vehicle id="right_21" type="v1" route="r13" depart="20" />
    <vehicle id="right_22" type="v1" route="r13" depart="21" />
    <vehicle id="right_23" type="v1" route="r13" depart="22" />
    <vehicle id="right_24" type="v1" route="r13" depart="23" />
    <vehicle id="right_25" type="v1" route="r13" depart="24" />
    <vehicle id="right_26" type="v1" route="r13" depart="25" />
    <vehicle id="right_27" type="v1" route="r13" depart="26" />
    <vehicle id="right_28" type="v1" route="r13" depart="27" />
    <vehicle id="right_29" type="v1" route="r13" depart="28" />
    <vehicle id="right_30" type="v1" route="r13" depart="29" />
    <vehicle id="right_31" type="v1" route="r13" depart="30" />
    <vehicle id="right_32" type="v1" route="r13" depart="31" />
    <vehicle id="right_33" type="v1" route="r13" depart="32" />
    <vehicle id="right_34" type="v1" route="r13" depart="33" />
    <vehicle id="right_35" type="v1" route="r13" depart="34" />
    <vehicle id="right_36" type="v1" route="r13" depart="35" />
    <vehicle id="right_37" type="v1" route="r13" depart="36" />
    <vehicle id="right_38" type="v1" route="r13" depart="37" />
    <vehicle id="right_39" type="v1" route="r13" depart="38" />
    <vehicle id="right_40" type="v1" route="r13" depart="39" />
    <vehicle id="right_41" type="v1" route="r13" depart="40" />
    <vehicle id="right_42" type="v1" route="r13" depart="41" />
    <vehicle id="right_43" type="v1" route="r13" depart="42" />
    <vehicle id="right_44" type="v1" route="r13" depart="43" />
    <vehicle id="right_45" type="v1" route="r13" depart="44" />
    <vehicle id="right_46" type="v1" route="r13" depart="45" />
    <vehicle id="right_47" type="v1" route="r13" depart="46" />
    <vehicle id="right_48" type="v1" route="r13" depart="47" />
    <vehicle id="right_49" type="v1" route="r13" depart="48" />
    <vehicle id="right_50" type="v1" route="r13" depart="49" />
    <vehicle id="right_51" type="v1" route="r13" depart="50" />
    <vehicle id="right_52" type="v1" route="r13" depart="51" />
    <vehicle id="right_53" type="v1" route="r13" depart="52" />
    <vehicle id="right_54" type="v1" route="r13" depart="53" />
    <vehicle id="up_55" type="v1" route="r42" depart="53" />
    <vehicle id="right_56" type="v1" route="r13" depart="54" />
    <vehicle id="right_57" type="v1" route="r13" depart="55" />
    <vehicle id="right_58" type="v1" route="r13" depart="56" />
    <vehicle id="right_59" type="v1" route="r13" depart="57" />
    <vehicle id="right_60" type="v1" route="r13" depart="58" />
    <vehicle id="right_61" type="v1" route="r13" depart="59" />
    <vehicle id="right_62" type="v1" route="r13" depart="60" />
    <vehicle id="right_63" type="v1" route="r13" depart="61" />
    <vehicle id="right_64" type="v1" route="r13" depart="62" />
    <vehicle id="right_65" type="v1" route="r13" depart="63" />
    <vehicle id="right_66" type="v1" route="r13" depart="64" />
    <vehicle id="right_67" type="v1" route="r13" depart="65" />
    <vehicle id="right_68" type="v1" route="r13" depart="66" />
    <vehicle id="right_69" type="v1" route="r13" depart="67" />
    <vehicle id="right_70" type="v1" route="r13" depart="68" />
    <vehicle id="right_71" type="v1" route="r13" depart="69" />
    <vehicle id="right_72" type="v1" route="r13" depart="70" />
    <vehicle id="right_73" type="v1" route="r13" depart="71" />
    <vehicle id="right_74" type="v1" route="r13" depart="72" />
    <vehicle id="right_75" type="v1" route="r13" depart="73" />
    <vehicle id="right_76" type="v1" route="r13" depart="74" />
    <vehicle id="right_77" type="v1" route="r13" depart="75" />
    <vehicle id="right_78" type="v1" route="r13" depart="76" />
    <vehicle id="right_79" type="v1" route="r13" depart="77" />
    <vehicle id="right_80" type="v1" route="r13" depart="78" />
    <vehicle id="right_81" type="v1" route="r13" depart="79" />
    <vehicle id="right_82" type="v1" route="r13" depart="80" />
    <vehicle id="right_83" type="v1" route="r13" depart="81" />
    <vehicle id="right_84" type="v1" route="r13" depart="82" />
    <vehicle id="right_85" type="v1" route="r13" depart="83" />
    <vehicle id="right_86" type="v1" route="r13" depart="84" />
    <vehicle id="right_87" type="v1" route="r13" depart="85" />
    <vehicle id="right_88" type="v1" route="r13" depart="86" />
    <vehicle id="right_89" type="v1" route="r13" depart="87" />
    <vehicle id="right_90" type="v1" route="r13" depart="88" />
    <vehicle id="right_91" type="v1" route="r13" depart="89" />
    <vehicle id="right_92" type="v1" route="r13" depart="90" />
    <vehicle id="right_93" type="v1" route="r13" depart="91" />
    <vehicle id="right_94" type="v1" route="r13" depart="92" />
    <vehicle id="right_95" type="v1" route="r13" depart="93" />
    <vehicle id="up_96" type="v1" route="r42" depart="93" />
    <vehicle id="right_97" type="v1" route="r13" depart="94" />
    <vehicle id="right_98" type="v1" route="r13" depart="95" />
    <vehicle id="right_99" type="v1" route="r13" depart="96" />
    <vehicle id="right_100" type="v1" route="r13" depart="97" />
    <vehicle id="right_101" type="v1" route="r13" depart="98" />
    <vehicle id="right_102" type="v1" route="r13" depart="99" />
    <vehicle id="right_103" type="v1" route="r13" depart="100" />
    <vehicle id="right_104" type="v1" route="r13" depart="101" />
    <vehicle id="right_105" type="v1" route="r13" depart="102" />
    <vehicle id="right_106" type="v1" route="r13" depart="103" />
    <vehicle id="right_107" type="v1" route="r13" depart="104" />
    <vehicle id="right_108" type="v1" route="r13" depart="105" />
    <vehicle id="right_109" type="v1" route="r13" depart="106" />
    <vehicle id="right_110" type="v1" route="r13" depart="107" />
    <vehicle id="right_111" type="v1" route="r13" depart="108" />
    <vehicle id="right_112" type="v1" route="r13" depart="109" />
    <vehicle id="right_113" type="v1" route="r13" depart="110" />
    <vehicle id="right_114" type="v1" route="r13" depart="111" />
    <vehicle id="right_115" type="v1" route="r13" depart="112" />
    <vehicle id="right_116" type="v1" route="r13" depart="113" />
    <vehicle id="right_117" type="v1" route="r13" depart="114" />
    <vehicle id="right_118" type="v1" route="r13" depart="115" />
    <vehicle id="right_119" type="v1" route="r13" depart="116" />
    <vehicle id="right_120" type="v1" route="r13" depart="117" />
    <vehicle id="right_121" type="v1" route="r13" depart="118" />
    <vehicle id="right_122" type="v1" route="r13" depart="119" />
    <vehicle id="right_123" type="v1" route="r13" depart="120" />
    <vehicle id="right_124" type="v1" route="r13" depart="121" />
    <vehicle id="right_125" type="v1" route="r13" depart="122" />
    <vehicle id="right_126" type="v1" route="r13" depart="123" />
    <vehicle id="right_127" type="v1" route="r13" depart="124" />
    <vehicle id="right_128" type="v1" route="r13" depart="125" />
    <vehicle id="right_129" type="v1" route="r13" depart="126" />
    <vehicle id="right_130" type="v1" route="r13" depart="127" />
    <vehicle id="right_131" type="v1" route="r13" depart="128" />
    <vehicle id="right_132" type="v1" route="r13" depart="129" />
    <vehicle id="right_133" type="v1" route="r13" depart="130" />
    <vehicle id="right_134" type="v1" route="r13" depart="131" />
    <vehicle id="right_135" type="v1" route="r13" depart="132" />
    <vehicle id="right_136" type="v1" route="r13" depart="133" />
    <vehicle id="right_137" type="v1" route="r13" depart="134" />
    <vehicle id="right_138" type="v1" route="r13" depart="135" />
    <vehicle id="right_139" type="v1" route="r13" depart="136" />
    <vehicle id="right_140" type="v1" route="r13" depart="137" />
    <vehicle id="right_141" type="v1" route="r13" depart="138" />
    <vehicle id="right_142" type="v1" route="r13" depart="139" />
    <vehicle id="right_143" type="v1" route="r13" depart="140" />
    <vehicle id="right_144" type="v1" route="r13" depart="141" />
    <vehicle id="right_145" type="v1" route="r13" depart="142" />
    <vehicle id="right_146" type="v1" route="r13" depart="143" />
    <vehicle id="right_147" type="v1" route="r13" depart="144" />
    <vehicle id="right_148" type="v1" route="r13" depart="145" />
    <vehicle id="right_149" type="v1" route="r13" depart="146" />
    <vehicle id="right_150" type="v1" route="r13" depart="147" />
    <vehicle id="right_151" type="v1" route="r13" depart="148" />
    <vehicle id="right_152" type="v1" route="r13" depart="149" />
    <vehicle id="right_153" type="v1" route="r13" depart="150" />
    <vehicle id="right_154" type="v1" route="r13" depart="151" />
    <vehicle id="right_155" type="v1" route="r13" depart="152" />
    <vehicle id="right_156" type="v1" route="r13" depart="153" />
    <vehicle id="right_157" type="v1" route="r13" depart="154" />
    <vehicle id="right_158" type="v1" route="r13" depart="155" />
    <vehicle id="right_159" type="v1" route="r13" depart="156" />
    <vehicle id="right_160" type="v1" route="r13" depart="157" />
    <vehicle id="right_161" type="v1" route="r13" depart="158" />
    <vehicle id="right_162" type="v1" route="r13" depart="159" />
    <vehicle id="right_163" type="v1" route="r13" depart="160" />
    <vehicle id="right_164" type="v1" route="r13" depart="161" />
    <vehicle id="right_165" type="v1" route="r13" depart="162" />
    <vehicle id="right_166" type="v1" route="r13" depart="163" />
    <vehicle id="right_167" type="v1" route="r13" depart="164" />
    <vehicle id="right_168" type="v1" route="r13" depart="165" />
    <vehicle id="right_169" type="v1" route="r13" depart="166" />
    <vehicle id="right_170" type="v1" route="r13" depart="167" />
    <vehicle id="right_171" type="v1" route="r13" depart="168" />
    <vehicle id="right_172" type="v1" route="r13" depart="169" />
    <vehicle id="right_173" type="v1" route="r13" depart="170" />
    <vehicle id="right_174" type="v1" route="r13" depart="171" />
    <vehicle id="right_175" type="v1" route="r13" depart="172" />
    <vehicle id="right_176" type="v1" route="r13" depart="173" />
    <vehicle id="right_177" type="v1" route="r13" depart="174" />
    <vehicle id="right_178" type="v1" route="r13" depart="175" />
    <vehicle id="right_179" type="v1" route="r13" depart="176" />
    <vehicle id="right_180" type="v1" route="r13" depart="177" />
    <vehicle id="right_181" type="v1" route="r13" depart="178" />
    <vehicle id="right_182" type="v1" route="r13" depart="179" />
    <vehicle id="right_183" type="v1" route="r13" depart="180" />
    <vehicle id="right_184" type="v1" route="r13" depart="181" />
    <vehicle id="right_185" type="v1" route="r13" depart="182" />
    <vehicle id="right_186" type="v1" route="r13" depart="183" />
    <vehicle id="right_187" type="v1" route="r13" depart="184" />
    <vehicle id="right_188" type="v1" route="r13" depart="185" />
    <vehicle id="right_189" type="v1" route="r13" depart="186" />
    <vehicle id="right_190" type="v1" route="r13" depart="187" />
    <vehicle id="right_191" type="v1" route="r13" depart="188" />
    <vehicle id="right_192" type="v1" route="r13" depart="189" />
    <vehicle id="right_193" type="v1" route="r13" depart="190" />
    <vehicle id="right_194" type="v1" route="r13" depart="191" />
    <vehicle id="right_195" type="v1" route="r13" depart="192" />
    <vehicle id="right_196" type="v1" route="r13" depart="193" />
    <vehicle id="right_197" type="v1" route="r13" depart="194" />
    <vehicle id="right_198" type="v1" route="r13" depart="195" />
    <vehicle id="right_199" type="v1" route="r13" depart="197" />
    <vehicle id="up_200" type="v1" route="r42" depart="199" />
    <vehicle id="right_201" type="v1" route="r13" depart="200" />
    <vehicle id="right_202" type="v1" route="r13" depart="201" />
    <vehicle id="right_203" type="v1" route="r13" depart="202" />
    <vehicle id="right_204" type="v1" route="r13" depart="203" />
    <vehicle id="right_205" type="v1" route="r13" depart="204" />
    <vehicle id="right_206" type="v1" route="r13" depart="205" />
    <vehicle id="right_207" type="v1" route="r13" depart="206" />
    <vehicle id="right_208" type="v1" route="r13" depart="207" />
    <vehicle id="right_209" type="v1" route="r13" depart="208" />
    <vehicle id="right_210" type="v1" route="r13" depart="209" />
    <vehicle id="right_211" type="v1" route="r13" depart="210" />
    <vehicle id="right_212" type="v1" route="r13" depart="211" />
    <vehicle id="right_213" type="v1" route="r13" depart="213" />
    <vehicle id="right_214" type="v1" route="r13" depart="218" />
    <vehicle id="right_215" type="v1" route="r13" depart="219" />
    <vehicle id="right_216" type="v1" route="r13" depart="220" />
    <vehicle id="right_217" type="v1" route="r13" depart="221" />
    <vehicle id="right_218" type="v1" route="r13" depart="222" />
    <vehicle id="right_219" type="v1" route="r13" depart="224" />
    <vehicle id="right_220" type="v1" route="r13" depart="225" />
    <vehicle id="right_221" type="v1" route="r13" depart="226" />
    <vehicle id="right_222" type="v1" route="r13" depart="227" />
    <vehicle id="right_223" type="v1" route="r13" depart="228" />
    <vehicle id="right_224" type="v1" route="r13" depart="229" />
    <vehicle id="right_225" type="v1" route="r13" depart="230" />
    <vehicle id="right_226" type="v1" route="r13" depart="231" />
    <vehicle id="right_227" type="v1" route="r13" depart="232" />
    <vehicle id="right_228" type="v1" route="r13" depart="234" />
    <vehicle id="right_229" type="v1" route="r13" depart="235" />
    <vehicle id="right_230" type="v1" route="r13" depart="236" />
    <vehicle id="right_231" type="v1" route="r13" depart="237" />
    <vehicle id="right_232" type="v1" route="r13" depart="238" />
    <vehicle id="right_233" type="v1" route="r13" depart="239" />
    <vehicle id="right_234" type="v1" route="r13" depart="240" />
    <vehicle id="right_235" type="v1" route="r13" depart="241" />
    <vehicle id="right_236" type="v1" route="r13" depart="242" />
    <vehicle id="right_237" type="v1" route="r13" depart="243" />
    <vehicle id="right_238" type="v1" route="r13" depart="244" />
    <vehicle id="right_239" type="v1" route="r13" depart="245" />
    <vehicle id="right_240" type="v1" route="r13" depart="246" />
    <vehicle id="right_241" type="v1" route="r13" depart="247" />
    <vehicle id="right_242" type="v1" route="r13" depart="248" />
    <vehicle id="right_243" type="v1" route="r13" depart="249" />
    <vehicle id="right_244" type="v1" route="r13" depart="250" />
    <vehicle id="right_245" type="v1" route="r13" depart="251" />
    <vehicle id="right_246" type="v1" route="r13" depart="252" />
    <vehicle id="right_247" type="v1" route="r13" depart="253" />
    <vehicle id="right_248" type="v1" route="r13" depart="254" />
    <vehicle id="right_249" type="v1" route="r13" depart="255" />
    <vehicle id="right_250" type="v1" route="r13" depart="256" />
    <vehicle id="up_251" type="v1" route="r42" depart="256" />
    <vehicle id="right_252" type="v1" route="r13" depart="257" />
    <vehicle id="right_253" type="v1" route="r13" depart="258" />
    <vehicle id="right_254" type="v1" route="r13" depart="264" />
    <vehicle id="right_255" type="v1" route="r13" depart="265" />
    <vehicle id="right_256" type="v1" route="r13" depart="266" />
    <vehicle id="right_257" type="v1" route="r13" depart="267" />
    <vehicle id="right_258" type="v1" route="r13" depart="268" />
    <vehicle id="right_259" type="v1" route="r13" depart="269" />
    <vehicle id="right_260" type="v1" route="r13" depart="271" />
    <vehicle id="right_261" type="v1" route="r13" depart="272" />
    <vehicle id="right_262" type="v1" route="r13" depart="273" />
    <vehicle id="right_263" type="v1" route="r13" depart="274" />
    <vehicle id="up_264" type="v1" route="r42" depart="274" />
    <vehicle id="right_265" type="v1" route="r13" depart="275" />
    <vehicle id="right_266" type="v1" route="r13" depart="279" />
    <vehicle id="right_267" type="v1" route="r13" depart="280" />
    <vehicle id="right_268" type="v1" route="r13" depart="281" />
    <vehicle id="right_269" type="v1" route="r13" depart="282" />
    <vehicle id="right_270" type="v1" route="r13" depart="283" />
    <vehicle id="right_271" type="v1" route="r13" depart="284" />
    <vehicle id="right_272" type="v1" route="r13" depart="286" />
    <vehicle id="right_273" type="v1" route="r13" depart="287" />
    <vehicle id="right_274" type="v1" route="r13" depart="288" />
    <vehicle id="right_275" type="v1" route="r13" depart="289" />
    <vehicle id="right_276" type="v1" route="r13" depart="290" />
    <vehicle id="right_277" type="v1" route="r13" depart="291" />
    <vehicle id="right_278" type="v1" route="r13" depart="292" />
    <vehicle id="right_279" type="v1" route="r13" depart="293" />
    <vehicle id="right_280" type="v1" route="r13" depart="294" />
    <vehicle id="right_281" type="v1" route="r13" depart="295" />
    <vehicle id="right_282" type="v1" route="r13" depart="296" />
    <vehicle id="right_283" type="v1" route="r13" depart="297" />
    <vehicle id="right_284" type="v1" route="r13" depart="298" />
    <vehicle id="right_285" type="v1" route="r13" depart="299" />
    <vehicle id="right_286" type="v1" route="r13" depart="300" />
    <vehicle id="right_287" type="v1" route="r13" depart="301" />
    <vehicle id="right_288" type="v1" route="r13" depart="302" />
    <vehicle id="up_289" type="v1" route="r42" depart="302" />
    <vehicle id="right_290" type="v1" route="r13" depart="303" />
    <vehicle id="right_291" type="v1" route="r13" depart="304" />
    <vehicle id="right_292" type="v1" route="r13" depart="305" />
    <vehicle id="right_293" type="v1" route="r13" depart="306" />
    <vehicle id="right_294" type="v1" route="r13" depart="307" />
    <vehicle id="right_295" type="v1" route="r13" depart="308" />
    <vehicle id="right_296" type="v1" route="r13" depart="309" />
    <vehicle id="right_297" type="v1" route="r13" depart="310" />
    <vehicle id="right_298" type="v1" route="r13" depart="311" />
    <vehicle id="right_299" type="v1" route="r13" depart="312" />
    <vehicle id="right_300" type="v1" route="r13" depart="313" />
    <vehicle id="right_301" type="v1" route="r13" depart="314" />
    <vehicle id="right_302" type="v1" route="r13" depart="315" />
    <vehicle id="right_303" type="v1" route="r13" depart="316" />
    <vehicle id="right_304" type="v1" route="r13" depart="317" />
    <vehicle id="right_305" type="v1" route="r13" depart="318" />
    <vehicle id="right_306" type="v1" route="r13" depart="319" />
    <vehicle id="right_307" type="v1" route="r13" depart="320" />
    <vehicle id="right_308" type="v1" route="r13" depart="321" />
    <vehicle id="right_309" type="v1" route="r13" depart="322" />
    <vehicle id="right_310" type="v1" route="r13" depart="323" />
    <vehicle id="right_311" type="v1" route="r13" depart="324" />
    <vehicle id="right_312" type="v1" route="r13" depart="325" />
    <vehicle id="right_313" type="v1" route="r13" depart="326" />
    <vehicle id="right_314" type="v1" route="r13" depart="327" />
    <vehicle id="right_315" type="v1" route="r13" depart="328" />
    <vehicle id="right_316" type="v1" route="r13" depart="329" />
    <vehicle id="right_317" type="v1" route="r13" depart="330" />
    <vehicle id="right_318" type="v1" route="r13" depart="331" />
    <vehicle id="right_319" type="v1" route="r13" depart="332" />
    <vehicle id="right_320" type="v1" route="r13" depart="333" />
    <vehicle id="right_321" type="v1" route="r13" depart="334" />
    <vehicle id="right_322" type="v1" route="r13" depart="336" />
    <vehicle id="right_323" type="v1" route="r13" depart="337" />
    <vehicle id="right_324" type="v1" route="r13" depart="338" />
    <vehicle id="right_325" type="v1" route="r13" depart="339" />
    <vehicle id="right_326" type="v1" route="r13" depart="341" />
    <vehicle id="right_327" type="v1" route="r13" depart="342" />
    <vehicle id="right_328" type="v1" route="r13" depart="344" />
    <vehicle id="right_329" type="v1" route="r13" depart="346" />
    <vehicle id="right_330" type="v1" route="r13" depart="347" />
    <vehicle id="up_331" type="v1" route="r42" depart="347" />
    <vehicle id="right_332" type="v1" route="r13" depart="348" />
    <vehicle id="right_333" type="v1" route="r13" depart="350" />
    <vehicle id="up_334" type="v1" route="r42" depart="350" />
    <vehicle id="right_335" type="v1" route="r13" depart="352" />
    <vehicle id="right_336" type="v1" route="r13" depart="354" />
    <vehicle id="right_337" type="v1" route="r13" depart="355" />
    <vehicle id="right_338" type="v1" route="r13" depart="356" />
    <vehicle id="right_339" type="v1" route="r13" depart="357" />
    <vehicle id="right_340" type="v1" route="r13" depart="358" />
    <vehicle id="up_341" type="v1" route="r42" depart="358" />
    <vehicle id="right_342" type="v1" route="r13" depart="359" />
    <vehicle id="right_343" type="v1" route="r13" depart="360" />
    <vehicle id="right_344" type="v1" route="r13" depart="361" />
    <vehicle id="right_345" type="v1" route="r13" depart="362" />
    <vehicle id="right_346" type="v1" route="r13" depart="363" />
    <vehicle id="right_347" type="v1" route="r13" depart="364" />
    <vehicle id="up_348" type="v1" route="r42" depart="364" />
    <vehicle id="right_349" type="v1" route="r13" depart="365" />
    <vehicle id="right_350" type="v1" route="r13" depart="366" />
    <vehicle id="right_351" type="v1" route="r13" depart="368" />
    <vehicle id="right_352" type="v1" route="r13" depart="369" />
    <vehicle id="right_353" type="v1" route="r13" depart="371" />
    <vehicle id="right_354" type="v1" route="r13" depart="372" />
    <vehicle id="right_355" type="v1" route="r13" depart="375" />
    <vehicle id="right_356" type="v1" route="r13" depart="376" />
    <vehicle id="right_357" type="v1" route="r13" depart="377" />
    <vehicle id="right_358" type="v1" route="r13" depart="378" />
    <vehicle id="right_359" type="v1" route="r13" depart="379" />
    <vehicle id="right_360" type="v1" route="r13" depart="380" />
    <vehicle id="right_361" type="v1" route="r13" depart="381" />
    <vehicle id="right_362" type="v1" route="r13" depart="382" />
    <vehicle id="right_363" type="v1" route="r13" depart="383" />
    <vehicle id="right_364" type="v1" route="r13" depart="384" />
    <vehicle id="right_365" type="v1" route="r13" depart="385" />
    <vehicle id="right_366" type="v1" route="r13" depart="386" />
    <vehicle id="right_367" type="v1" route="r13" depart="387" />
    <vehicle id="right_368" type="v1" route="r13" depart="388" />
    <vehicle id="right_369" type="v1" route="r13" depart="389" />
    <vehicle id="right_370" type="v1" route="r13" depart="390" />
    <vehicle id="right_371" type="v1" route="r13" depart="391" />
    <vehicle id="right_372" type="v1" route="r13" depart="392" />
    <vehicle id="right_373" type="v1" route="r13" depart="393" />
    <vehicle id="right_374" type="v1" route="r13" depart="394" />
    <vehicle id="right_375" type="v1" route="r13" depart="395" />
    <vehicle id="right_376" type="v1" route="r13" depart="396" />
    <vehicle id="right_377" type="v1" route="r13" depart="397" />
    <vehicle id="right_378" type="v1" route="r13" depart="398" />
    <vehicle id="right_379" type="v1" route="r13" depart="399" />
    <vehicle id="right_380" type="v1" route="r13" depart="400" />
    <vehicle id="right_381" type="v1" route="r13" depart="401" />
    <vehicle id="right_382" type="v1" route="r13" depart="402" />
    <vehicle id="right_383" type="v1" route="r13" depart="403" />
    <vehicle id="right_384" type="v1" route="r13" depart="404" />
    <vehicle id="right_385" type="v1" route="r13" depart="405" />
    <vehicle id="right_386" type="v1" route="r13" depart="406" />
    <vehicle id="right_387" type="v1" route="r13" depart="407" />
    <vehicle id="right_388" type="v1" route="r13" depart="408" />
    <vehicle id="right_389" type="v1" route="r13" depart="409" />
    <vehicle id="right_390" type="v1" route="r13" depart="410" />
    <vehicle id="right_391" type="v1" route="r13" depart="411" />
    <vehicle id="right_392" type="v1" route="r13" depart="412" />
    <vehicle id="right_393" type="v1" route="r13" depart="413" />
    <vehicle id="right_394" type="v1" route="r13" depart="414" />
    <vehicle id="right_395" type="v1" route="r13" depart="415" />
    <vehicle id="right_396" type="v1" route="r13" depart="416" />
    <vehicle id="right_397" type="v1" route="r13" depart="417" />
    <vehicle id="right_398" type="v1" route="r13" depart="418" />
    <vehicle id="right_399" type="v1" route="r13" depart="419" />
    <vehicle id="right_400" type="v1" route="r13" depart="420" />
    <vehicle id="right_401" type="v1" route="r13" depart="421" />
    <vehicle id="right_402" type="v1" route="r13" depart="422" />
    <vehicle id="right_403" type="v1" route="r13" depart="423" />
    <vehicle id="right_404" type="v1" route="r13" depart="424" />
    <vehicle id="right_405" type="v1" route="r13" depart="425" />
    <vehicle id="right_406" type="v1" route="r13" depart="426" />
    <vehicle id="right_407" type="v1" route="r13" depart="427" />
    <vehicle id="right_408" type="v1" route="r13" depart="428" />
    <vehicle id="right_409" type="v1" route="r13" depart="429" />
    <vehicle id="right_410" type="v1" route="r13" depart="430" />
    <vehicle id="right_411" type="v1" route="r13" depart="431" />
    <vehicle id="right_412" type="v1" route="r13" depart="432" />
    <vehicle id="right_413" type="v1" route="r13" depart="433" />
    <vehicle id="right_414" type="v1" route="r13" depart="434" />
    <vehicle id="right_415" type="v1" route="r13" depart="435" />
    <vehicle id="right_416" type="v1" route="r13" depart="436" />
    <vehicle id="right_417" type="v1" route="r13" depart="437" />
    <vehicle id="right_418" type="v1" route="r13" depart="438" />
    <vehicle id="right_419" type="v1" route="r13" depart="439" />
    <vehicle id="right_420" type="v1" route="r13" depart="440" />
    <vehicle id="right_421" type="v1" route="r13" depart="441" />
    <vehicle id="right_422" type="v1" route="r13" depart="442" />
    <vehicle id="right_423" type="v1" route="r13" depart="443" />
    <vehicle id="right_424" type="v1" route="r13" depart="444" />
    <vehicle id="right_425" type="v1" route="r13" depart="445" />
    <vehicle id="right_426" type="v1" route="r13" depart="446" />
    <vehicle id="right_427" type="v1" route="r13" depart="447" />
    <vehicle id="right_428" type="v1" route="r13" depart="448" />
    <vehicle id="right_429" type="v1" route="r13" depart="449" />
    <vehicle id="right_430" type="v1" route="r13" depart="450" />
    <vehicle id="right_431" type="v1" route="r13" depart="451" />
    <vehicle id="right_432" type="v1" route="r13" depart="452" />
    <vehicle id="right_433" type="v1" route="r13" depart="453" />
    <vehicle id="right_434" type="v1" route="r13" depart="454" />
    <vehicle id="right_435" type="v1" route="r13" depart="455" />
    <vehicle id="right_436" type="v1" route="r13" depart="456" />
    <vehicle id="right_437" type="v1" route="r13" depart="457" />
    <vehicle id="right_438" type="v1" route="r13" depart="458" />
    <vehicle id="right_439" type="v1" route="r13" depart="459" />
    <vehicle id="right_440" type="v1" route="r13" depart="460" />
    <vehicle id="right_441" type="v1" route="r13" depart="461" />
    <vehicle id="right_442" type="v1" route="r13" depart="462" />
    <vehicle id="right_443" type="v1" route="r13" depart="463" />
    <vehicle id="right_444" type="v1" route="r13" depart="464" />
    <vehicle id="right_445" type="v1" route="r13" depart="465" />
    <vehicle id="right_446" type="v1" route="r13" depart="466" />
    <vehicle id="right_447" type="v1" route="r13" depart="467" />
    <vehicle id="right_448" type="v1" route="r13" depart="468" />
    <vehicle id="right_449" type="v1" route="r13" depart="469" />
    <vehicle id="right_450" type="v1" route="r13" depart="470" />
    <vehicle id="right_451" type="v1" route="r13" depart="471" />
    <vehicle id="right_452" type="v1" route="r13" depart="472" />
    <vehicle id="right_453" type="v1" route="r13" depart="473" />
    <vehicle id="right_454" type="v1" route="r13" depart="474" />