<?xml version="1.0" encoding="UTF-8"?>

<!-- generated on 2022-06-06 12:04:19 by Eclipse SUMO netedit Version 1.10.0
<configuration xmlns:xsi="http://www.w3.org/2001/XMLSchema-instance" xsi:noNamespaceSchemaLocation="http://sumo.dlr.de/xsd/netconvertConfiguration.xsd">

    <input>
        <sumo-net-file value="/Users/YingqingChen/2022-06-06-11-48-46/osm.net.xml"/>
    </input>

    <output>
        <output-file value="/Users/YingqingChen/2022-06-06-11-48-46/osm.net.xml"/>
        <plain-output-prefix value="/Users/YingqingChen/Documents/GitHub/TLC/Veberod_intersection"/>
        <output.street-names value="true"/>
    </output>

    <processing>
        <geometry.min-radius.fix.railways value="false"/>
        <geometry.max-grade.fix value="false"/>
        <offset.disable-normalization value="true"/>
        <lefthand value="false"/>
    </processing>

    <junctions>
        <no-turnarounds value="true"/>
        <junctions.corner-detail value="5"/>
        <junctions.limit-turn-speed value="5.5"/>
        <rectangular-lane-cut value="false"/>
    </junctions>

    <pedestrian>
        <walkingareas value="false"/>
    </pedestrian>

    <report>
        <aggregate-warnings value="5"/>
    </report>

</configuration>
-->

<nodes version="1.9" xmlns:xsi="http://www.w3.org/2001/XMLSchema-instance" xsi:noNamespaceSchemaLocation="http://sumo.dlr.de/xsd/nodes_file.xsd">
    <location netOffset="-404672.95,-6165499.85" convBoundary="126.64,0.00,1427.81,1222.51" origBoundary="13.485576,55.625890,13.508575,55.637064" projParameter="+proj=utm +zone=33 +ellps=WGS84 +datum=WGS84 +units=m +no_defs"/>

    <node id="1112561380" x="309.11" y="999.64" type="priority"/>
    <node id="1112561419" x="317.03" y="997.30" type="priority"/>
    <node id="1379852907" x="296.99" y="975.29" type="priority"/>
    <node id="1379853591" x="401.35" y="880.61" type="right_before_left"/>
    <node id="1379853854" x="371.84" y="791.46" type="right_before_left"/>
    <node id="1379853886" x="430.91" y="869.25" type="right_before_left"/>
    <node id="1379853959" x="200.37" y="814.98" type="priority"/>
    <node id="1379880345" x="360.41" y="930.60" type="right_before_left"/>
    <node id="1557668347" x="346.99" y="792.00" type="priority"/>
    <node id="1558283932" x="962.25" y="609.12" type="priority"/>
    <node id="1558284245" x="428.36" y="799.18" type="dead_end"/>
    <node id="1558284348" x="444.71" y="829.40" type="right_before_left"/>
    <node id="1558284403" x="431.39" y="842.16" type="right_before_left"/>
    <node id="1558284462" x="437.41" y="863.39" type="priority"/>
    <node id="1558285090" x="212.71" y="1222.51" type="priority"/>
    <node id="1786775778" x="1427.81" y="434.92" type="dead_end"/>
    <node id="267701920" x="381.51" y="0.00" type="dead_end"/>
    <node id="333793816" x="306.03" y="995.15" type="priority"/>
    <node id="3435726452" x="339.76" y="954.73" type="right_before_left"/>
    <node id="386716506" x="835.64" y="665.57" type="priority"/>
    <node id="469420026" x="274.97" y="915.53" type="priority"/>
    <node id="469420038" x="210.54" y="826.74" type="right_before_left"/>
    <node id="469420746" x="126.64" y="731.28" type="priority"/>
    <node id="469422029" x="478.79" y="746.27" type="priority"/>
    <node id="7575493917" x="534.68" y="775.62" type="right_before_left"/>
    <node id="7575493918" x="535.23" y="777.18" type="dead_end"/>
    <node id="7575493919" x="484.53" y="810.48" type="right_before_left"/>
    <node id="7575493920" x="483.73" y="808.85" type="dead_end"/>
    <node id="cluster_1112561393_1558284210_1558284271_1558284287_1786807547_420767834_469421912" x="476.71" y="803.49" type="priority"/>
    <node id="cluster_1379853822_1379854174_1786807578_267701936" x="425.07" y="855.96" type="priority"/>
    <node id="cluster_1379853947_469417306" x="383.34" y="914.80" type="priority"/>
    <node id="cluster_1379854187_222030661" x="321.26" y="982.98" type="priority"/>
    <node id="cluster_1558284002_469422130" x="642.75" y="740.84" type="priority"/>
    <node id="cluster_1558284134_1786807522_267701932_267701934" x="391.16" y="778.67" type="priority"/>
    <node id="cluster_1558284162_1786807532_1786807537" x="515.70" y="788.32" type="priority"/>
    <node id="cluster_1558284175_469420994" x="315.87" y="791.21" type="priority"/>
    <node id="cluster_1786776595_469403942" x="706.96" y="724.25" type="priority"/>
    <node id="cluster_1786776596_469417212" x="672.91" y="736.19" type="priority"/>
    <node id="cluster_1786776598_380550404" x="544.45" y="780.92" type="priority"/>
    <node id="cluster_1786807592_1786807595" x="237.77" y="876.53" type="priority"/>
</nodes>
