<?xml version="1.0" encoding="UTF-8"?>

<!-- generated on 2022-06-06 12:04:19 by Eclipse SUMO netedit Version 1.10.0
<configuration xmlns:xsi="http://www.w3.org/2001/XMLSchema-instance" xsi:noNamespaceSchemaLocation="http://sumo.dlr.de/xsd/netconvertConfiguration.xsd">

    <input>
        <sumo-net-file value="/Users/YingqingChen/2022-06-06-11-48-46/osm.net.xml"/>
    </input>

    <output>
        <output-file value="/Users/YingqingChen/2022-06-06-11-48-46/osm.net.xml"/>
        <plain-output-prefix value="/Users/YingqingChen/Documents/GitHub/TLC/Veberod_intersection"/>
        <output.street-names value="true"/>
    </output>

    <processing>
        <geometry.min-radius.fix.railways value="false"/>
        <geometry.max-grade.fix value="false"/>
        <offset.disable-normalization value="true"/>
        <lefthand value="false"/>
    </processing>

    <junctions>
        <no-turnarounds value="true"/>
        <junctions.corner-detail value="5"/>
        <junctions.limit-turn-speed value="5.5"/>
        <rectangular-lane-cut value="false"/>
    </junctions>

    <pedestrian>
        <walkingareas value="false"/>
    </pedestrian>

    <report>
        <aggregate-warnings value="5"/>
    </report>

</configuration>
-->

<edges version="1.9" xmlns:xsi="http://www.w3.org/2001/XMLSchema-instance" xsi:noNamespaceSchemaLocation="http://sumo.dlr.de/xsd/edges_file.xsd">
    <edge id="-142391741#2" from="cluster_1558284162_1786807532_1786807537" to="cluster_1112561393_1558284210_1558284271_1558284287_1786807547_420767834_469421912" priority="1" type="highway.path" numLanes="1" speed="2.78" shape="514.18,783.21 488.69,793.43" width="2.00" allow="pedestrian bicycle">
        <lane index="0">
            <param key="origId" value="142391741"/>
        </lane>
        <param key="origFrom" value="1558284162"/>
        <param key="origTo" value="1558284210"/>
    </edge>
    <edge id="-142391741#3" from="7575493917" to="cluster_1558284162_1786807532_1786807537" priority="1" type="highway.path" numLanes="1" speed="2.78" shape="534.68,775.62 521.90,780.15 514.18,783.21" width="2.00" allow="pedestrian bicycle">
        <lane index="0">
            <param key="origId" value="142391741"/>
        </lane>
        <param key="origTo" value="1558284162"/>
    </edge>
    <edge id="-142391741#4" from="cluster_1558284002_469422130" to="7575493917" priority="1" type="highway.path" numLanes="1" speed="2.78" shape="641.81,738.20 556.91,767.79 537.47,774.64 534.68,775.62" width="2.00" allow="pedestrian bicycle">
        <lane index="0">
            <param key="origId" value="142391741"/>
        </lane>
        <param key="origFrom" value="1558284002"/>
    </edge>
    <edge id="-142391741#5" from="1558283932" to="cluster_1558284002_469422130" priority="1" type="highway.path" numLanes="1" speed="2.78" shape="962.25,609.12 896.87,634.73 833.72,660.09 771.90,687.31 730.39,705.85 708.82,714.32 641.81,738.20" width="2.00" allow="pedestrian bicycle">
        <lane index="0">
            <param key="origId" value="142391741"/>
        </lane>
        <param key="origTo" value="1558284002"/>
    </edge>
    <edge id="-142391742#0" from="3435726452" to="cluster_1379854187_222030661" priority="1" type="highway.path" numLanes="1" speed="2.78" shape="339.76,954.73 336.45,958.51 319.06,981.60" width="2.00" allow="pedestrian bicycle">
        <lane index="0">
            <param key="origId" value="142391742"/>
        </lane>
        <param key="origTo" value="1379854187"/>
    </edge>
    <edge id="-142391742#1" from="1379880345" to="3435726452" priority="1" type="highway.path" numLanes="1" speed="2.78" shape="360.41,930.60 354.60,937.76 339.76,954.73" width="2.00" allow="pedestrian bicycle">
        <lane index="0">
            <param key="origId" value="142391742"/>
        </lane>
    </edge>
    <edge id="-142391742#4" from="cluster_1379853822_1379854174_1786807578_267701936" to="1379853591" priority="1" type="highway.path" numLanes="1" speed="2.78" shape="418.95,859.47 401.35,880.61" width="2.00" allow="pedestrian bicycle">
        <lane index="0">
            <param key="origId" value="142391742"/>
        </lane>
        <param key="origFrom" value="1379854174"/>
    </edge>
    <edge id="-142391742#6" from="1379853886" to="cluster_1379853822_1379854174_1786807578_267701936" priority="1" type="highway.path" numLanes="1" speed="2.78" shape="430.91,869.25 423.62,862.71" width="2.00" allow="pedestrian bicycle">
        <lane index="0">
            <param key="origId" value="142391742"/>
        </lane>
        <param key="origTo" value="1379853822"/>
    </edge>
    <edge id="-142391743#1" from="1558284403" to="cluster_1379853822_1379854174_1786807578_267701936" priority="1" type="highway.path" numLanes="1" speed="2.78" shape="431.39,842.16 426.56,848.16" width="2.00" allow="pedestrian bicycle">
        <lane index="0">
            <param key="origId" value="142391743"/>
        </lane>
        <param key="origTo" value="1786807578"/>
    </edge>
    <edge id="-142391743#2" from="1558284348" to="1558284403" priority="1" type="highway.path" numLanes="1" speed="2.78" shape="444.71,829.40 435.39,840.57 433.83,841.83 431.39,842.16" width="2.00" allow="pedestrian bicycle">
        <lane index="0">
            <param key="origId" value="142391743"/>
        </lane>
    </edge>
    <edge id="-142391743#3" from="cluster_1112561393_1558284210_1558284271_1558284287_1786807547_420767834_469421912" to="1558284348" priority="1" type="highway.path" numLanes="1" speed="2.78" shape="459.33,811.72 456.76,815.82 444.71,829.40" width="2.00" allow="pedestrian bicycle">
        <lane index="0">
            <param key="origId" value="142391743"/>
        </lane>
        <param key="origFrom" value="1558284287"/>
    </edge>
    <edge id="-142391744#0" from="333793816" to="1558285090" priority="1" type="highway.path" numLanes="1" speed="2.78" shape="306.03,995.15 301.87,1001.42 302.39,1007.36 301.49,1017.40 300.98,1019.43 296.35,1037.94 291.16,1054.53 286.50,1069.46 283.83,1077.82 281.95,1082.77 279.83,1088.32 271.57,1107.17 246.62,1156.34 238.39,1172.45 229.85,1189.18 212.71,1222.51" width="2.00" allow="pedestrian bicycle">
        <lane index="0">
            <param key="origId" value="142391744"/>
        </lane>
    </edge>
    <edge id="-142391744#1" from="cluster_1379854187_222030661" to="333793816" priority="1" type="highway.path" numLanes="1" speed="2.78" shape="319.06,981.60 310.88,989.14 306.03,995.15" width="2.00" allow="pedestrian bicycle">
        <lane index="0">
            <param key="origId" value="142391744"/>
        </lane>
        <param key="origFrom" value="1379854187"/>
    </edge>
    <edge id="-142391754#0" from="cluster_1379854187_222030661" to="cluster_1379853947_469417306" priority="1" type="highway.path" numLanes="1" speed="2.78" shape="323.46,984.37 327.41,987.02 355.47,951.88 384.80,917.00" width="2.00" allow="pedestrian bicycle">
        <lane index="0">
            <param key="origId" value="142391754 167274984"/>
        </lane>
        <param key="origFrom" value="222030661"/>
        <param key="origTo" value="1379853947"/>
    </edge>
    <edge id="-167273043#1" from="cluster_1786776596_469417212" to="cluster_1786776595_469403942" priority="1" type="highway.path" numLanes="1" speed="2.78" shape="673.69,738.80 707.72,726.76" width="2.00" allow="pedestrian bicycle">
        <lane index="0">
            <param key="origId" value="167273043"/>
        </lane>
        <param key="origFrom" value="1786776596"/>
        <param key="origTo" value="1786776595"/>
    </edge>
    <edge id="-167273043#2" from="cluster_1786776598_380550404" to="cluster_1786776596_469417212" priority="1" type="highway.path" numLanes="1" speed="2.78" shape="545.35,783.61 611.46,760.57 673.69,738.80" width="2.00" allow="pedestrian bicycle">
        <lane index="0">
            <param key="origId" value="167273043"/>
        </lane>
        <param key="origFrom" value="1786776598"/>
        <param key="origTo" value="1786776596"/>
    </edge>
    <edge id="-167274984#1" from="7575493919" to="cluster_1558284162_1786807532_1786807537" priority="1" type="highway.path" numLanes="1" speed="2.78" shape="484.53,810.48 509.45,798.18 512.77,796.29 517.24,793.67" width="2.00" allow="pedestrian bicycle">
        <lane index="0">
            <param key="origId" value="167274984"/>
        </lane>
        <param key="origTo" value="1786807537"/>
    </edge>
    <edge id="-167274984#2" from="1558284462" to="7575493919" priority="1" type="highway.path" numLanes="1" speed="2.78" shape="437.41,863.39 441.69,859.78 439.56,855.74 440.00,852.28 446.95,843.20 457.91,830.57 470.04,818.43 481.57,811.93 484.53,810.48" width="2.00" allow="pedestrian bicycle">
        <lane index="0">
            <param key="origId" value="167274984"/>
        </lane>
    </edge>
    <edge id="-167274984#3" from="1379853886" to="1558284462" priority="1" type="highway.path" numLanes="1" speed="2.78" shape="430.91,869.25 433.41,866.98 437.41,863.39" width="2.00" allow="pedestrian bicycle">
        <lane index="0">
            <param key="origId" value="167274984"/>
        </lane>
    </edge>
    <edge id="-167274984#4" from="cluster_1379853947_469417306" to="1379853886" priority="1" type="highway.path" numLanes="1" speed="2.78" shape="384.80,917.00 395.19,904.50 404.55,894.62 411.49,890.73 430.91,869.25" width="2.00" allow="pedestrian bicycle">
        <lane index="0">
            <param key="origId" value="167274984"/>
        </lane>
        <param key="origFrom" value="1379853947"/>
    </edge>
    <edge id="-197398020#0" from="1379853959" to="469420038" name="Remontgatan" priority="3" type="highway.residential" numLanes="1" speed="8.33" disallow="tram rail_urban rail rail_electric rail_fast ship">
        <lane index="0">
            <param key="origId" value="197398020"/>
        </lane>
    </edge>
    <edge id="-197398020#1" from="469420746" to="1379853959" name="Remontgatan" priority="3" type="highway.residential" numLanes="1" speed="8.33" shape="126.64,731.28 138.39,733.77 156.68,742.87 164.78,756.10 174.56,780.27 185.43,794.72 200.37,814.98" disallow="tram rail_urban rail rail_electric rail_fast ship">
        <lane index="0">
            <param key="origId" value="197398020"/>
        </lane>
    </edge>
    <edge id="-30186293" from="cluster_1112561393_1558284210_1558284271_1558284287_1786807547_420767834_469421912" to="cluster_1379853822_1379854174_1786807578_267701936" name="Sjöbovägen" priority="11" type="highway.secondary" numLanes="1" speed="27.78" shape="473.08,809.44 460.92,820.07 448.85,832.41 431.15,853.48" disallow="tram rail_urban rail rail_electric rail_fast ship">
        <lane index="0">
            <param key="origId" value="30186293"/>
        </lane>
        <param key="origFrom" value="420767834"/>
        <param key="origTo" value="267701936"/>
        <param key="ref" value="102.01"/>
    </edge>
    <edge id="-311389509#0" from="cluster_1786776598_380550404" to="cluster_1558284162_1786807532_1786807537" name="Sjöbovägen" priority="11" type="highway.secondary" numLanes="1" speed="27.78" shape="543.54,778.23 536.14,780.81 515.66,788.08" disallow="tram rail_urban rail rail_electric rail_fast ship">
        <lane index="0">
            <param key="origId" value="311389509 311389510"/>
        </lane>
        <param key="origFrom" value="380550404"/>
        <param key="origTo" value="1786807532"/>
        <param key="ref" value="102.01"/>
    </edge>
    <edge id="-311389509#1" from="cluster_1558284002_469422130" to="cluster_1786776598_380550404" name="Sjöbovägen" priority="11" type="highway.secondary" numLanes="1" speed="27.78" shape="643.70,743.49 604.87,757.01 543.54,778.23" disallow="tram rail_urban rail rail_electric rail_fast ship">
        <lane index="0">
            <param key="origId" value="311389509"/>
        </lane>
        <param key="origFrom" value="469422130"/>
        <param key="origTo" value="380550404"/>
        <param key="ref" value="102.01"/>
    </edge>
    <edge id="-311389509#2" from="cluster_1786776596_469417212" to="cluster_1558284002_469422130" name="Sjöbovägen" priority="11" type="highway.secondary" numLanes="1" speed="27.78" shape="672.14,733.58 643.70,743.49" disallow="tram rail_urban rail rail_electric rail_fast ship">
        <lane index="0">
            <param key="origId" value="311389509"/>
        </lane>
        <param key="origFrom" value="469417212"/>
        <param key="origTo" value="469422130"/>
        <param key="ref" value="102.01"/>
    </edge>
    <edge id="-311389509#3" from="cluster_1786776595_469403942" to="cluster_1786776596_469417212" name="Sjöbovägen" priority="11" type="highway.secondary" numLanes="1" speed="27.78" shape="706.21,721.75 672.14,733.58" disallow="tram rail_urban rail rail_electric rail_fast ship">
        <lane index="0">
            <param key="origId" value="311389509"/>
        </lane>
        <param key="origFrom" value="469403942"/>
        <param key="origTo" value="469417212"/>
        <param key="ref" value="102.01"/>
    </edge>
    <edge id="-311389509#4" from="386716506" to="cluster_1786776595_469403942" name="Sjöbovägen" priority="11" type="highway.secondary" numLanes="1" speed="27.78" shape="835.64,665.57 791.20,685.43 775.48,692.46 768.15,695.74 731.73,712.01 706.21,721.75" disallow="tram rail_urban rail rail_electric rail_fast ship">
        <lane index="0">
            <param key="origId" value="311389509"/>
        </lane>
        <param key="origTo" value="469403942"/>
        <param key="ref" value="102.01"/>
    </edge>
    <edge id="-311389510#1" from="cluster_1558284162_1786807532_1786807537" to="cluster_1112561393_1558284210_1558284271_1558284287_1786807547_420767834_469421912" name="Sjöbovägen" priority="11" type="highway.secondary" numLanes="1" speed="27.78" shape="515.66,788.08 500.93,793.37 489.74,798.45" disallow="tram rail_urban rail rail_electric rail_fast ship">
        <lane index="0">
            <param key="origId" value="311389510"/>
        </lane>
        <param key="origFrom" value="1786807532"/>
        <param key="origTo" value="469421912"/>
        <param key="ref" value="102.01"/>
    </edge>
    <edge id="-34992983#3" from="cluster_1379853822_1379854174_1786807578_267701936" to="1558284462" name="Läkaregatan" priority="3" type="highway.residential" numLanes="1" speed="13.89" shape="431.15,853.48 437.41,863.39" disallow="tram rail_urban rail rail_electric rail_fast ship">
        <lane index="0">
            <param key="origId" value="34992983"/>
        </lane>
        <param key="origFrom" value="267701936"/>
    </edge>
    <edge id="-355113044#0" from="cluster_1112561393_1558284210_1558284271_1558284287_1786807547_420767834_469421912" to="cluster_1558284134_1786807522_267701932_267701934" name="Gamla vägen" priority="11" type="highway.secondary" numLanes="1" speed="27.78" shape="467.04,807.58 431.04,796.36 411.02,790.34 401.37,788.96 393.07,788.62" disallow="tram rail_urban rail rail_electric rail_fast ship">
        <lane index="0">
            <param key="origId" value="355113044 35996792"/>
        </lane>
        <param key="origFrom" value="1558284271"/>
        <param key="origTo" value="267701934"/>
        <param key="ref" value="102.02"/>
    </edge>
    <edge id="-39189009#0" from="cluster_1558284175_469420994" to="469420038" name="Gamla vägen" priority="3" type="highway.residential" numLanes="1" speed="8.33" shape="316.09,793.22 284.81,796.51 254.73,803.57 226.06,812.57 218.10,816.23 213.09,819.74 210.54,826.74" disallow="tram rail_urban rail rail_electric rail_fast ship">
        <lane index="0">
            <param key="origId" value="39189009"/>
        </lane>
        <param key="origFrom" value="469420994"/>
    </edge>
    <edge id="-39189009#1" from="1557668347" to="cluster_1558284175_469420994" name="Gamla vägen" priority="3" type="highway.residential" numLanes="1" speed="8.33" shape="346.99,792.00 316.09,793.22" disallow="tram rail_urban rail rail_electric rail_fast ship">
        <lane index="0">
            <param key="origId" value="39189009"/>
        </lane>
        <param key="origTo" value="469420994"/>
    </edge>
    <edge id="-39189009#2" from="1379853854" to="1557668347" name="Gamla vägen" priority="3" type="highway.residential" numLanes="1" speed="8.33" disallow="tram rail_urban rail rail_electric rail_fast ship">
        <lane index="0">
            <param key="origId" value="39189009"/>
        </lane>
    </edge>
    <edge id="-39189009#3" from="cluster_1558284134_1786807522_267701932_267701934" to="1379853854" name="Gamla vägen" priority="3" type="highway.residential" numLanes="1" speed="8.33" shape="393.07,788.62 384.43,789.75 371.84,791.46" disallow="tram rail_urban rail rail_electric rail_fast ship">
        <lane index="0">
            <param key="origId" value="39189009"/>
        </lane>
        <param key="origFrom" value="267701934"/>
    </edge>
    <edge id="-39189139#1" from="469422029" to="cluster_1112561393_1558284210_1558284271_1558284287_1786807547_420767834_469421912" name="Klovgatan" priority="3" type="highway.residential" numLanes="1" speed="13.89" shape="478.79,746.27 488.69,793.43" disallow="tram rail_urban rail rail_electric rail_fast ship">
        <lane index="0">
            <param key="origId" value="39189139"/>
        </lane>
        <param key="origTo" value="1558284210"/>
    </edge>
    <edge id="-40274695#0" from="333793816" to="1112561380" name="Kyrkogatan" priority="3" type="highway.residential" numLanes="1" speed="8.33" disallow="tram rail_urban rail rail_electric rail_fast ship">
        <lane index="0">
            <param key="origId" value="40274695"/>
        </lane>
    </edge>
    <edge id="-40274695#1" from="1379852907" to="333793816" name="Kyrkogatan" priority="3" type="highway.residential" numLanes="1" speed="8.33" disallow="tram rail_urban rail rail_electric rail_fast ship">
        <lane index="0">
            <param key="origId" value="40274695"/>
        </lane>
    </edge>
    <edge id="-40274695#2" from="469420026" to="1379852907" name="Kyrkogatan" priority="3" type="highway.residential" numLanes="1" speed="8.33" shape="274.97,915.53 280.37,931.92 292.43,963.04 296.99,975.29" disallow="tram rail_urban rail rail_electric rail_fast ship">
        <lane index="0">
            <param key="origId" value="40274695"/>
        </lane>
    </edge>
    <edge id="-40274695#3" from="cluster_1786807592_1786807595" to="469420026" name="Kyrkogatan" priority="3" type="highway.residential" numLanes="1" speed="8.33" shape="242.49,874.14 254.29,886.21 263.42,897.85 274.97,915.53" disallow="tram rail_urban rail rail_electric rail_fast ship">
        <lane index="0">
            <param key="origId" value="40274695"/>
        </lane>
        <param key="origFrom" value="1786807592"/>
    </edge>
    <edge id="-40274695#4" from="469420038" to="cluster_1786807592_1786807595" name="Kyrkogatan" priority="3" type="highway.residential" numLanes="1" speed="8.33" shape="210.54,826.74 218.50,845.94 235.52,867.01 242.49,874.14" disallow="tram rail_urban rail rail_electric rail_fast ship">
        <lane index="0">
            <param key="origId" value="40274695"/>
        </lane>
        <param key="origTo" value="1786807592"/>
    </edge>
    <edge id="-83302916#2" from="cluster_1112561393_1558284210_1558284271_1558284287_1786807547_420767834_469421912" to="cluster_1558284134_1786807522_267701932_267701934" priority="1" type="highway.path" numLanes="1" speed="2.78" shape="477.75,799.91 473.24,801.00 467.49,801.25 458.38,799.02 410.71,785.12 402.85,781.83 399.33,778.59 397.07,774.68" width="2.00" allow="pedestrian bicycle">
        <lane index="0">
            <param key="origId" value="83302916"/>
        </lane>
        <param key="origFrom" value="1786807547"/>
        <param key="origTo" value="1786807522"/>
    </edge>
    <edge id="-96027913#0" from="cluster_1379854187_222030661" to="1112561419" name="Sjöbovägen" priority="11" type="highway.secondary" numLanes="1" speed="27.78" shape="323.46,984.37 320.22,989.61 318.16,993.73 317.03,997.30" disallow="tram rail_urban rail rail_electric rail_fast ship">
        <lane index="0">
            <param key="origId" value="96027913"/>
        </lane>
        <param key="origFrom" value="222030661"/>
        <param key="ref" value="102"/>
    </edge>
    <edge id="-96027913#1" from="cluster_1379853947_469417306" to="cluster_1379854187_222030661" name="Sjöbovägen" priority="11" type="highway.secondary" numLanes="1" speed="27.78" shape="381.88,912.60 353.86,946.51 337.90,965.77 323.46,984.37" disallow="tram rail_urban rail rail_electric rail_fast ship">
        <lane index="0">
            <param key="origId" value="96027913"/>
        </lane>
        <param key="origFrom" value="469417306"/>
        <param key="origTo" value="222030661"/>
        <param key="ref" value="102"/>
    </edge>
    <edge id="-96027913#2" from="cluster_1379853822_1379854174_1786807578_267701936" to="cluster_1379853947_469417306" name="Sjöbovägen" priority="11" type="highway.secondary" numLanes="1" speed="27.78" shape="423.62,862.71 408.63,880.39 400.56,890.48 381.88,912.60" disallow="tram rail_urban rail rail_electric rail_fast ship">
        <lane index="0">
            <param key="origId" value="96027913"/>
        </lane>
        <param key="origFrom" value="1379853822"/>
        <param key="origTo" value="469417306"/>
        <param key="ref" value="102"/>
    </edge>
    <edge id="142391741#2" from="cluster_1112561393_1558284210_1558284271_1558284287_1786807547_420767834_469421912" to="cluster_1558284162_1786807532_1786807537" priority="1" type="highway.path" numLanes="1" speed="2.78" shape="488.69,793.43 514.18,783.21" width="2.00" allow="pedestrian bicycle">
        <lane index="0">
            <param key="origId" value="142391741"/>
        </lane>
        <param key="origFrom" value="1558284210"/>
        <param key="origTo" value="1558284162"/>
    </edge>
    <edge id="142391741#3" from="cluster_1558284162_1786807532_1786807537" to="7575493917" priority="1" type="highway.path" numLanes="1" speed="2.78" shape="514.18,783.21 521.90,780.15 534.68,775.62" width="2.00" allow="pedestrian bicycle">
        <lane index="0">
            <param key="origId" value="142391741"/>
        </lane>
        <param key="origFrom" value="1558284162"/>
    </edge>
    <edge id="142391741#4" from="7575493917" to="cluster_1558284002_469422130" priority="1" type="highway.path" numLanes="1" speed="2.78" shape="534.68,775.62 537.47,774.64 556.91,767.79 641.81,738.20" width="2.00" allow="pedestrian bicycle">
        <lane index="0">
            <param key="origId" value="142391741"/>
        </lane>
        <param key="origTo" value="1558284002"/>
    </edge>
    <edge id="142391741#5" from="cluster_1558284002_469422130" to="1558283932" priority="1" type="highway.path" numLanes="1" speed="2.78" shape="641.81,738.20 708.82,714.32 730.39,705.85 771.90,687.31 833.72,660.09 896.87,634.73 962.25,609.12" width="2.00" allow="pedestrian bicycle">
        <lane index="0">
            <param key="origId" value="142391741"/>
        </lane>
        <param key="origFrom" value="1558284002"/>
    </edge>
    <edge id="142391742#0" from="cluster_1379854187_222030661" to="3435726452" priority="1" type="highway.path" numLanes="1" speed="2.78" shape="319.06,981.60 336.45,958.51 339.76,954.73" width="2.00" allow="pedestrian bicycle">
        <lane index="0">
            <param key="origId" value="142391742"/>
        </lane>
        <param key="origFrom" value="1379854187"/>
    </edge>
    <edge id="142391742#1" from="3435726452" to="1379880345" priority="1" type="highway.path" numLanes="1" speed="2.78" shape="339.76,954.73 354.60,937.76 360.41,930.60" width="2.00" allow="pedestrian bicycle">
        <lane index="0">
            <param key="origId" value="142391742"/>
        </lane>
    </edge>
    <edge id="142391742#4" from="1379853591" to="cluster_1379853822_1379854174_1786807578_267701936" priority="1" type="highway.path" numLanes="1" speed="2.78" shape="401.35,880.61 418.95,859.47" width="2.00" allow="pedestrian bicycle">
        <lane index="0">
            <param key="origId" value="142391742"/>
        </lane>
        <param key="origTo" value="1379854174"/>
    </edge>
    <edge id="142391742#6" from="cluster_1379853822_1379854174_1786807578_267701936" to="1379853886" priority="1" type="highway.path" numLanes="1" speed="2.78" shape="423.62,862.71 430.91,869.25" width="2.00" allow="pedestrian bicycle">
        <lane index="0">
            <param key="origId" value="142391742"/>
        </lane>
        <param key="origFrom" value="1379853822"/>
    </edge>
    <edge id="142391743#1" from="cluster_1379853822_1379854174_1786807578_267701936" to="1558284403" priority="1" type="highway.path" numLanes="1" speed="2.78" shape="426.56,848.16 431.39,842.16" width="2.00" allow="pedestrian bicycle">
        <lane index="0">
            <param key="origId" value="142391743"/>
        </lane>
        <param key="origFrom" value="1786807578"/>
    </edge>
    <edge id="142391743#2" from="1558284403" to="1558284348" priority="1" type="highway.path" numLanes="1" speed="2.78" shape="431.39,842.16 433.83,841.83 435.39,840.57 444.71,829.40" width="2.00" allow="pedestrian bicycle">
        <lane index="0">
            <param key="origId" value="142391743"/>
        </lane>
    </edge>
    <edge id="142391743#3" from="1558284348" to="cluster_1112561393_1558284210_1558284271_1558284287_1786807547_420767834_469421912" priority="1" type="highway.path" numLanes="1" speed="2.78" shape="444.71,829.40 456.76,815.82 459.33,811.72" width="2.00" allow="pedestrian bicycle">
        <lane index="0">
            <param key="origId" value="142391743"/>
        </lane>
        <param key="origTo" value="1558284287"/>
    </edge>
    <edge id="142391744#0" from="1558285090" to="333793816" priority="1" type="highway.path" numLanes="1" speed="2.78" shape="212.71,1222.51 229.85,1189.18 238.39,1172.45 246.62,1156.34 271.57,1107.17 279.83,1088.32 281.95,1082.77 283.83,1077.82 286.50,1069.46 291.16,1054.53 296.35,1037.94 300.98,1019.43 301.49,1017.40 302.39,1007.36 301.87,1001.42 306.03,995.15" width="2.00" allow="pedestrian bicycle">
        <lane index="0">
            <param key="origId" value="142391744"/>
        </lane>
    </edge>
    <edge id="142391744#1" from="333793816" to="cluster_1379854187_222030661" priority="1" type="highway.path" numLanes="1" speed="2.78" shape="306.03,995.15 310.88,989.14 319.06,981.60" width="2.00" allow="pedestrian bicycle">
        <lane index="0">
            <param key="origId" value="142391744"/>
        </lane>
        <param key="origTo" value="1379854187"/>
    </edge>
    <edge id="167273043#1" from="cluster_1786776595_469403942" to="cluster_1786776596_469417212" priority="1" type="highway.path" numLanes="1" speed="2.78" shape="707.72,726.76 673.69,738.80" width="2.00" allow="pedestrian bicycle">
        <lane index="0">
            <param key="origId" value="167273043"/>
        </lane>
        <param key="origFrom" value="1786776595"/>
        <param key="origTo" value="1786776596"/>
    </edge>
    <edge id="167273043#2" from="cluster_1786776596_469417212" to="cluster_1786776598_380550404" priority="1" type="highway.path" numLanes="1" speed="2.78" shape="673.69,738.80 611.46,760.57 545.35,783.61" width="2.00" allow="pedestrian bicycle">
        <lane index="0">
            <param key="origId" value="167273043"/>
        </lane>
        <param key="origFrom" value="1786776596"/>
        <param key="origTo" value="1786776598"/>
    </edge>
    <edge id="167274972#0" from="cluster_1112561393_1558284210_1558284271_1558284287_1786807547_420767834_469421912" to="1558284245" priority="1" type="highway.footway" numLanes="1" speed="2.78" shape="459.33,811.72 459.13,808.85 455.42,807.13 430.27,799.83 428.36,799.18" spreadType="center" width="2.00" allow="pedestrian">
        <lane index="0">
            <param key="origId" value="167274972"/>
        </lane>
        <param key="origFrom" value="1558284287"/>
    </edge>
    <edge id="167274984#1" from="cluster_1558284162_1786807532_1786807537" to="7575493919" priority="1" type="highway.path" numLanes="1" speed="2.78" shape="517.24,793.67 512.77,796.29 509.45,798.18 484.53,810.48" width="2.00" allow="pedestrian bicycle">
        <lane index="0">
            <param key="origId" value="167274984"/>
        </lane>
        <param key="origFrom" value="1786807537"/>
    </edge>
    <edge id="167274984#2" from="7575493919" to="1558284462" priority="1" type="highway.path" numLanes="1" speed="2.78" shape="484.53,810.48 481.57,811.93 470.04,818.43 457.91,830.57 446.95,843.20 440.00,852.28 439.56,855.74 441.69,859.78 437.41,863.39" width="2.00" allow="pedestrian bicycle">
        <lane index="0">
            <param key="origId" value="167274984"/>
        </lane>
    </edge>
    <edge id="167274984#3" from="1558284462" to="1379853886" priority="1" type="highway.path" numLanes="1" speed="2.78" shape="437.41,863.39 433.41,866.98 430.91,869.25" width="2.00" allow="pedestrian bicycle">
        <lane index="0">
            <param key="origId" value="167274984"/>
        </lane>
    </edge>
    <edge id="167274984#4" from="1379853886" to="cluster_1379853947_469417306" priority="1" type="highway.path" numLanes="1" speed="2.78" shape="430.91,869.25 411.49,890.73 404.55,894.62 395.19,904.50 384.80,917.00" width="2.00" allow="pedestrian bicycle">
        <lane index="0">
            <param key="origId" value="167274984"/>
        </lane>
        <param key="origTo" value="1379853947"/>
    </edge>
    <edge id="167274984#5" from="cluster_1379853947_469417306" to="cluster_1379854187_222030661" priority="1" type="highway.path" numLanes="1" speed="2.78" shape="384.80,917.00 355.47,951.88 327.41,987.02 323.46,984.37" width="2.00" allow="pedestrian bicycle">
        <lane index="0">