<routes>
        <vType id="v1" accel="2.6" decel="4.5" sigma="0.5" length="5" minGap="1" maxSpeed="55" guiShape="passenger"/>

        <route id="r13" edges="96027913#0 96027913#2 30186293 311389510#1" />
        <route id="r42" edges="-355113043#1 -24626686#2 -24626686#1 -34992983#3 -34992983#1" />
    <vehicle id="right_0" type="v1" route="r13" depart="1" />
    <vehicle id="right_1" type="v1" route="r13" depart="2" />
    <vehicle id="up_2" type="v1" route="r42" depart="2" />
    <vehicle id="up_3" type="v1" route="r42" depart="8" />
    <vehicle id="up_4" type="v1" route="r42" depart="13" />
    <vehicle id="right_5" type="v1" route="r13" depart="16" />
    <vehicle id="up_6" type="v1" route="r42" depart="17" />
    <vehicle id="up_7" type="v1" route="r42" depart="18" />
    <vehicle id="up_8" type="v1" route="r42" depart="20" />
    <vehicle id="up_9" type="v1" route="r42" depart="21" />
    <vehicle id="up_10" type="v1" route="r42" depart="24" />
    <vehicle id="right_11" type="v1" route="r13" depart="28" />
    <vehicle id="up_12" type="v1" route="r42" depart="30" />
    <vehicle id="up_13" type="v1" route="r42" depart="33" />
    <vehicle id="up_14" type="v1" route="r42" depart="39" />
    <vehicle id="up_15" type="v1" route="r42" depart="45" />
    <vehicle id="right_16" type="v1" route="r13" depart="55" />
    <vehicle id="right_17" type="v1" route="r13" depart="64" />
    <vehicle id="right_18" type="v1" route="r13" depart="78" />
    <vehicle id="right_19" type="v1" route="r13" depart="81" />
    <vehicle id="up_20" type="v1" route="r42" depart="89" />
    <vehicle id="right_21" type="v1" route="r13" depart="109" />
    <vehicle id="up_22" type="v1" route="r42" depart="124" />
    <vehicle id="right_23" type="v1" route="r13" depart="133" />
    <vehicle id="up_24" type="v1" route="r42" depart="135" />
    <vehicle id="up_25" type="v1" route="r42" depart="148" />
    <vehicle id="right_26" type="v1" route="r13" depart="156" />
    <vehicle id="up_27" type="v1" route="r42" depart="160" />
    <vehicle id="up_28" type="v1" route="r42" depart="161" />
    <vehicle id="right_29" type="v1" route="r13" depart="164" />
    <vehicle id="right_30" type="v1" route="r13" depart="165" />
    <vehicle id="right_31" type="v1" route="r13" depart="166" />
    <vehicle id="up_32" type="v1" route="r42" depart="173" />
    <vehicle id="up_33" type="v1" route="r42" depart="174" />
    <vehicle id="up_34" type="v1" route="r42" depart="177" />
    <vehicle id="up_35" type="v1" route="r42" depart="184" />
    <vehicle id="up_36" type="v1" route="r42" depart="185" />
    <vehicle id="up_37" type="v1" route="r42" depart="186" />
    <vehicle id="right_38" type="v1" route="r13" depart="188" />
    <vehicle id="up_39" type="v1" route="r42" depart="194" />
    <vehicle id="right_40" type="v1" route="r13" depart="201" />
    <vehicle id="right_41" type="v1" route="r13" depart="202" />
    <vehicle id="up_42" type="v1" route="r42" depart="208" />
    <vehicle id="up_43" type="v1" route="r42" depart="221" />
    <vehicle id="right_44" type="v1" route="r13" depart="224" />
    <vehicle id="right_45" type="v1" route="r13" depart="226" />
    <vehicle id="up_46" type="v1" route="r42" depart="231" />
    <vehicle id="up_47" type="v1" route="r42" depart="235" />
    <vehicle id="right_48" type="v1" route="r13" depart="240" />
    <vehicle id="up_49" type="v1" route="r42" depart="241" />
    <vehicle id="right_50" type="v1" route="r13" depart="245" />
    <vehicle id="up_51" type="v1" route="r42" depart="249" />
    <vehicle id="right_52" type="v1" route="r13" depart="250" />
    <vehicle id="right_53" type="v1" route="r13" depart="253" />
    <vehicle id="up_54" type="v1" route="r42" depart="256" />
    <vehicle id="up_55" type="v1" route="r42" depart="259" />
    <vehicle id="up_56" type="v1" route="r42" depart="260" />
    <vehicle id="up_57" type="v1" route="r42" depart="263" />
    <vehicle id="right_58" type="v1" route="r13" depart="264" />
    <vehicle id="right_59" type="v1" route="r13" depart="266" />
    <vehicle id="right_60" type="v1" route="r13" depart="269" />
    <vehicle id="right_61" type="v1" route="r13" depart="270" />
    <vehicle id="up_62" type="v1" route="r42" depart="271" />
    <vehicle id="up_63" type="v1" route="r42" depart="272" />
    <vehicle id="right_64" type="v1" route="r13" depart="273" />
    <vehicle id="right_65" type="v1" route="r13" depart="274" />
    <vehicle id="right_66" type="v1" route="r13" depart="280" />
    <vehicle id="up_67" type="v1" route="r42" depart="281" />
    <vehicle id="right_68" type="v1" route="r13" depart="286" />
    <vehicle id="right_69" type="v1" route="r13" depart="291" />
    <vehicle id="right_70" type="v1" route="r13" depart="302" />
    <vehicle id="up_71" type="v1" route="r42" depart="302" />
    <vehicle id="right_72" type="v1" route="r13" depart="305" />
    <vehicle id="up_73" type="v1" route="r42" depart="305" />
    <vehicle id="up_74" type="v1" route="r42" depart="306" />
    <vehicle id="up_75" type="v1" route="r42" depart="307" />
    <vehicle id="right_76" type="v1" route="r13" depart="322" />
    <vehicle id="up_77" type="v1" route="r42" depart="330" />
    <vehicle id="right_78" type="v1" route="r13" depart="331" />
    <vehicle id="right_79" type="v1" route="r13" depart="335" />
    <vehicle id="right_80" type="v1" route="r13" depart="342" />
    <vehicle id="up_81" type="v1" route="r42" depart="345" />
    <vehicle id="right_82" type="v1" route="r13" depart="349" />
    <vehicle id="right_83" type="v1" route="r13" depart="354" />
    <vehicle id="up_84" type="v1" route="r42" depart="354" />
    <vehicle id="up_85" type="v1" route="r42" depart="360" />
    <vehicle id="up_86" type="v1" route="r42" depart="371" />
    <vehicle id="up_87" type="v1" route="r42" depart="372" />
    <vehicle id="up_88" type="v1" route="r42" depart="373" />
    <vehicle id="right_89" type="v1" route="r13" depart="375" />
    <vehicle id="right_90" type="v1" route="r13" depart="376" />
    <vehicle id="up_91" type="v1" route="r42" depart="376" />
    <vehicle id="up_92" type="v1" route="r42" depart="391" />
    <vehicle id="up_93" type="v1" route="r42" depart="392" />
    <vehicle id="right_94" type="v1" route="r13" depart="393" />
    <vehicle id="up_95" type="v1" route="r42" depart="393" />
    <vehicle id="right_96" type="v1" route="r13" depart="403" />
    <vehicle id="up_97" type="v1" route="r42" depart="407" />
    <vehicle id="up_98" type="v1" route="r42" depart="415" />
    <vehicle id="up_99" type="v1" route="r42" depart="417" />
    <vehicle id="up_100" type="v1" route="r42" depart="420" />
    <vehicle id="right_101" type="v1" route="r13" depart="433" />
    <vehicle id="right_102" type="v1" route="r13" depart="438" />
    <vehicle id="right_103" type="v1" route="r13" depart="442" />
    <vehicle id="right_104" type="v1" route="r13" depart="443" />
    <vehicle id="right_105" type="v1" route="r13" depart="444" />
    <vehicle id="right_106" type="v1" route="r13" depart="450" />
    <vehicle id="right_107" type="v1" route="r13" depart="454" />
    <vehicle id="right_108" type="v1" route="r13" depart="455" />
    <vehicle id="right_109" type="v1" route="r13" depart="457" />
    <vehicle id="right_110" type="v1" route="r13" depart="458" />
    <vehicle id="right_111" type="v1" route="r13" depart="459" />
    <vehicle id="up_112" type="v1" route="r42" depart="459" />
    <vehicle id="right_113" type="v1" route="r13" depart="460" />
    <vehicle id="right_114" type="v1" route="r13" depart="461" />
    <vehicle id="right_115" type="v1" route="r13" depart="462" />
    <vehicle id="up_116" type="v1" route="r42" depart="463" />
    <vehicle id="right_117" type="v1" route="r13" depart="472" />
    <vehicle id="right_118" type="v1" route="r13" depart="474" />
    <vehicle id="right_119" type="v1" route="r13" depart="475" />
    <vehicle id="up_120" type="v1" route="r42" depart="481" />
    <vehicle id="right_121" type="v1" route="r13" depart="484" />
    <vehicle id="right_122" type="v1" route="r13" depart="491" />
    <vehicle id="right_123" type="v1" route="r13" depart="492" />
    <vehicle id="right_124" type="v1" route="r13" depart="493" />
    <vehicle id="up_125" type="v1" route="r42" depart="496" />
    <vehicle id="up_126" type="v1" route="r42" depart="503" />
    <vehicle id="right_127" type="v1" route="r13" depart="506" />
    <vehicle id="right_128" type="v1" route="r13" depart="520" />
    <vehicle id="up_129" type="v1" route="r42" depart="523" />
    <vehicle id="right_130" type="v1" route="r13" depart="526" />
    <vehicle id="right_131" type="v1" route="r13" depart="536" />
    <vehicle id="right_132" type="v1" route="r13" depart="537" />
    <vehicle id="up_133" type="v1" route="r42" depart="542" />
    <vehicle id="up_134" type="v1" route="r42" depart="544" />
    <vehicle id="up_135" type="v1" route="r42" depart="549" />
    <vehicle id="up_136" type="v1" route="r42" depart="556" />
    <vehicle id="right_137" type="v1" route="r13" depart="563" />
    <vehicle id="up_138" type="v1" route="r42" depart="563" />
    <vehicle id="up_139" type="v1" route="r42" depart="564" />
    <vehicle id="up_140" type="v1" route="r42" depart="565" />
    <vehicle id="right_141" type="v1" route="r13" depart="569" />
    <vehicle id="up_142" type="v1" route="r42" depart="571" />
    <vehicle id="up_143" type="v1" route="r42" depart="576" />
    <vehicle id="right_144" type="v1" route="r13" depart="577" />
    <vehicle id="right_145" type="v1" route="r13" depart="578" />
    <vehicle id="up_146" type="v1" route="r42" depart="579" />
    <vehicle id="right_147" type="v1" route="r13" depart="594" />
    <vehicle id="up_148" type="v1" route="r42" depart="595" />
    <vehicle id="right_149" type="v1" route="r13" depart="598" />
    <vehicle id="up_150" type="v1" route="r42" depart="604" />
    <vehicle id="up_151" type="v1" route="r42" depart="606" />
    <vehicle id="up_152" type="v1" route="r42" depart="608" />
    <vehicle id="right_153" type="v1" route="r13" depart="612" />
    <vehicle id="right_154" type="v1" route="r13" depart="619" />
    <vehicle id="up_155" type="v1" route="r42" depart="619" />
    <vehicle id="right_156" type="v1" route="r13" depart="624" />
    <vehicle id="up_157" type="v1" route="r42" depart="628" />
    <vehicle id="up_158" type="v1" route="r42" depart="632" />
    <vehicle id="right_159" type="v1" route="r13" depart="634" />
    <vehicle id="up_160" type="v1" route="r42" depart="636" />
    <vehicle id="right_161" type="v1" route="r13" depart="648" />
    <vehicle id="up_162" type="v1" route="r42" depart="653" />
    <vehicle id="up_163" type="v1" route="r42" depart="656" />
    <vehicle id="up_164" type="v1" route="r42" depart="666" />
    <vehicle id="up_165" type="v1" route="r42" depart="679" />
    <vehicle id="right_166" type="v1" route="r13" depart="683" />
    <vehicle id="up_167" type="v1" route="r42" depart="683" />
    <vehicle id="right_168" type="v1" route="r13" depart="685" />
    <vehicle id="right_169" type="v1" route="r13" depart="688" />
    <vehicle id="up_170" type="v1" route="r42" depart="689" />
    <vehicle id="right_171" type="v1" route="r13" depart="691" />
    <vehicle id="up_172" type="v1" route="r42" depart="695" />
    <vehicle id="right_173" type="v1" route="r13" depart="702" />
    <vehicle id="right_174" type="v1" route="r13" depart="704" />
    <vehicle id="up_175" type="v1" route="r42" depart="712" />
    <vehicle id="right_176" type="v1" route="r13" depart="713" />
    <vehicle id="up_177" type="v1" route="r42" depart="718" />
    <vehicle id="up_178" type="v1" route="r42" depart="724" />
    <vehicle id="up_179" type="v1" route="r42" depart="725" />
    <vehicle id="up_180" type="v1" route="r42" depart="731" />
    <vehicle id="up_181" type="v1" route="r42" depart="734" />
    <vehicle id="up_182" type="v1" route="r42" depart="741" />
    <vehicle id="up_183" type="v1" route="r42" depart="743" />
    <vehicle id="up_184" type="v1" route="r42" depart="751" />
    <vehicle id="up_185" type="v1" route="r42" depart="756" />
    <vehicle id="up_186" type="v1" route="r42" depart="757" />
    <vehicle id="up_187" type="v1" route="r42" depart="758" />
    <vehicle id="up_188" type="v1" route="r42" depart="763" />
    <vehicle id="right_189" type="v1" route="r13" depart="764" />
    <vehicle id="right_190" type="v1" route="r13" depart="771" />
    <vehicle id="right_191" type="v1" route="r13" depart="772" />
    <vehicle id="up_192" type="v1" route="r42" depart="772" />
    <vehicle id="up_193" type="v1" route="r42" depart="773" />
    <vehicle id="up_194" type="v1" route="r42" depart="774" />
    <vehicle id="right_195" type="v1" route="r13" depart="776" />
    <vehicle id="up_196" type="v1" route="r42" depart="776" />
    <vehicle id="right_197" type="v1" route="r13" depart="777" />
    <vehicle id="right_198" type="v1" route="r13" depart="795" />
    <vehicle id="up_199" type="v1" route="r42" depart="797" />
    <vehicle id="right_200" type="v1" route="r13" depart="807" />
    <vehicle id="right_201" type="v1" route="r13" depart="810" />
    <vehicle id="right_202" type="v1" route="r13" depart="812" />
    <vehicle id="up_203" type="v1" route="r42" depart="818" />
    <vehicle id="up_204" type="v1" route="r42" depart="819" />
    <vehicle id="right_205" type="v1" route="r13" depart="821" />
    <vehicle id="right_206" type="v1" route="r13" depart="824" />
    <vehicle id="up_207" type="v1" route="r42" depart="839" />
    <vehicle id="up_208" type="v1" route="r42" depart="843" />
    <vehicle id="up_209" type="v1" route="r42" depart="844" />
    <vehicle id="up_210" type="v1" route="r42" depart="852" />
    <vehicle id="up_211" type="v1" route="r42" depart="854" />
    <vehicle id="up_212" type="v1" route="r42" depart="855" />
    <vehicle id="right_213" type="v1" route="r13" depart="871" />
    <vehicle id="right_214" type="v1" route="r13" depart="878" />
    <vehicle id="up_215" type="v1" route="r42" depart="880" />
    <vehicle id="up_216" type="v1" route="r42" depart="881" />
    <vehicle id="up_217" type="v1" route="r42" depart="882" />
    <vehicle id="up_218" type="v1" route="r42" depart="888" />
    <vehicle id="up_219" type="v1" route="r42" depart="889" />
    <vehicle id="right_220" type="v1" route="r13" depart="890" />
    <vehicle id="up_221" type="v1" route="r42" depart="890" />
    <vehicle id="up_222" type="v1" route="r42" depart="892" />
    <vehicle id="up_223" type="v1" route="r42" depart="899" />
    <vehicle id="up_224" type="v1" route="r42" depart="900" />
    <vehicle id="up_225" type="v1" route="r42" depart="901" />
    <vehicle id="right_226" type="v1" route="r13" depart="904" />
    <vehicle id="up_227" type="v1" route="r42" depart="908" />
    <vehicle id="up_228" type="v1" route="r42" depart="912" />
    <vehicle id="right_229" type="v1" route="r13" depart="931" />
    <vehicle id="right_230" type="v1" route="r13" depart="934" />
    <vehicle id="up_231" type="v1" route="r42" depart="946" />
    <vehicle id="up_232" type="v1" route="r42" depart="949" />
    <vehicle id="up_233" type="v1" route="r42" depart="950" />
    <vehicle id="right_234" type="v1" route="r13" depart="951" />
    <vehicle id="up_235" type="v1" route="r42" depart="961" />
    <vehicle id="right_236" type="v1" route="r13" depart="964" />
    <vehicle id="up_237" type="v1" route="r42" depart="965" />
    <vehicle id="right_238" type="v1" route="r13" depart="966" />
    <vehicle id="up_239" type="v1" route="r42" depart="971" />
    <vehicle id="up_240" type="v1" route="r42" depart="982" />
    <vehicle id="right_241" type="v1" route="r13" depart="986" />
    <vehicle id="right_242" type="v1" route="r13" depart="988" />
    <vehicle id="right_243" type="v1" route="r13" depart="989" />
    <vehicle id="right_244" type="v1" route="r13" depart="992" />
    <vehicle id="up_245" type="v1" route="r42" depart="992" />
    <vehicle id="right_246" type="v1" route="r13" depart="994" />
    <vehicle id="up_247" type="v1" route="r42" depart="997" />
    <vehicle id="up_248" type="v1" route="r42" depart="998" />
    <vehicle id="up_249" type="v1" route="r42" depart="999" />
</routes>
