<routes>
        <vType id="v1" accel="2.6" decel="4.5" sigma="0.5" length="5" minGap="2.5" maxSpeed="55" guiShape="passenger"/>

        <route id="r13" edges="96027913#0 96027913#2 30186293 311389510#1" />
        <route id="r42" edges="-355113043#1 -24626686#2 -24626686#1 -34992983#3 -34992983#1" />
    <vehicle id="up_0" type="v1" route="r42" depart="1" />
    <vehicle id="right_1" type="v1" route="r13" depart="2" />
    <vehicle id="up_2" type="v1" route="r42" depart="6" />
    <vehicle id="up_3" type="v1" route="r42" depart="8" />
    <vehicle id="up_4" type="v1" route="r42" depart="14" />
    <vehicle id="right_5" type="v1" route="r13" depart="18" />
    <vehicle id="up_6" type="v1" route="r42" depart="24" />
    <vehicle id="up_7" type="v1" route="r42" depart="25" />
    <vehicle id="up_8" type="v1" route="r42" depart="26" />
    <vehicle id="right_9" type="v1" route="r13" depart="28" />
    <vehicle id="right_10" type="v1" route="r13" depart="29" />
    <vehicle id="right_11" type="v1" route="r13" depart="36" />
    <vehicle id="right_12" type="v1" route="r13" depart="37" />
    <vehicle id="up_13" type="v1" route="r42" depart="37" />
    <vehicle id="right_14" type="v1" route="r13" depart="42" />
    <vehicle id="up_15" type="v1" route="r42" depart="46" />
    <vehicle id="up_16" type="v1" route="r42" depart="49" />
    <vehicle id="right_17" type="v1" route="r13" depart="55" />
    <vehicle id="up_18" type="v1" route="r42" depart="55" />
    <vehicle id="up_19" type="v1" route="r42" depart="62" />
    <vehicle id="right_20" type="v1" route="r13" depart="64" />
    <vehicle id="up_21" type="v1" route="r42" depart="71" />
    <vehicle id="right_22" type="v1" route="r13" depart="72" />
    <vehicle id="up_23" type="v1" route="r42" depart="72" />
    <vehicle id="up_24" type="v1" route="r42" depart="73" />
    <vehicle id="up_25" type="v1" route="r42" depart="74" />
    <vehicle id="up_26" type="v1" route="r42" depart="76" />
    <vehicle id="up_27" type="v1" route="r42" depart="79" />
    <vehicle id="up_28" type="v1" route="r42" depart="80" />
    <vehicle id="right_29" type="v1" route="r13" depart="83" />
    <vehicle id="right_30" type="v1" route="r13" depart="89" />
    <vehicle id="up_31" type="v1" route="r42" depart="90" />
    <vehicle id="right_32" type="v1" route="r13" depart="91" />
    <vehicle id="right_33" type="v1" route="r13" depart="95" />
    <vehicle id="up_34" type="v1" route="r42" depart="96" />
    <vehicle id="up_35" type="v1" route="r42" depart="97" />
    <vehicle id="up_36" type="v1" route="r42" depart="98" />
    <vehicle id="right_37" type="v1" route="r13" depart="103" />
    <vehicle id="up_38" type="v1" route="r42" depart="103" />
    <vehicle id="right_39" type="v1" route="r13" depart="104" />
    <vehicle id="right_40" type="v1" route="r13" depart="108" />
    <vehicle id="right_41" type="v1" route="r13" depart="114" />
    <vehicle id="right_42" type="v1" route="r13" depart="119" />
    <vehicle id="right_43" type="v1" route="r13" depart="120" />
    <vehicle id="up_44" type="v1" route="r42" depart="122" />
    <vehicle id="right_45" type="v1" route="r13" depart="127" />
    <vehicle id="up_46" type="v1" route="r42" depart="131" />
    <vehicle id="right_47" type="v1" route="r13" depart="132" />
    <vehicle id="right_48" type="v1" route="r13" depart="133" />
    <vehicle id="right_49" type="v1" route="r13" depart="134" />
    <vehicle id="right_50" type="v1" route="r13" depart="135" />
    <vehicle id="up_51" type="v1" route="r42" depart="138" />
    <vehicle id="right_52" type="v1" route="r13" depart="139" />
    <vehicle id="up_53" type="v1" route="r42" depart="139" />
    <vehicle id="right_54" type="v1" route="r13" depart="140" />
    <vehicle id="up_55" type="v1" route="r42" depart="141" />
    <vehicle id="up_56" type="v1" route="r42" depart="142" />
    <vehicle id="up_57" type="v1" route="r42" depart="156" />
    <vehicle id="up_58" type="v1" route="r42" depart="158" />
    <vehicle id="up_59" type="v1" route="r42" depart="159" />
    <vehicle id="right_60" type="v1" route="r13" depart="168" />
    <vehicle id="up_61" type="v1" route="r42" depart="169" />
    <vehicle id="right_62" type="v1" route="r13" depart="172" />
    <vehicle id="up_63" type="v1" route="r42" depart="172" />
    <vehicle id="right_64" type="v1" route="r13" depart="173" />
    <vehicle id="right_65" type="v1" route="r13" depart="179" />
    <vehicle id="right_66" type="v1" route="r13" depart="180" />
    <vehicle id="right_67" type="v1" route="r13" depart="181" />
    <vehicle id="up_68" type="v1" route="r42" depart="185" />
    <vehicle id="up_69" type="v1" route="r42" depart="195" />
    <vehicle id="right_70" type="v1" route="r13" depart="199" />
    <vehicle id="up_71" type="v1" route="r42" depart="199" />
    <vehicle id="up_72" type="v1" route="r42" depart="200" />
    <vehicle id="up_73" type="v1" route="r42" depart="203" />
    <vehicle id="right_74" type="v1" route="r13" depart="206" />
    <vehicle id="up_75" type="v1" route="r42" depart="208" />
    <vehicle id="right_76" type="v1" route="r13" depart="210" />
    <vehicle id="right_77" type="v1" route="r13" depart="215" />
    <vehicle id="right_78" type="v1" route="r13" depart="219" />
    <vehicle id="up_79" type="v1" route="r42" depart="220" />
    <vehicle id="up_80" type="v1" route="r42" depart="221" />
    <vehicle id="right_81" type="v1" route="r13" depart="227" />
    <vehicle id="right_82" type="v1" route="r13" depart="228" />
    <vehicle id="right_83" type="v1" route="r13" depart="231" />
    <vehicle id="right_84" type="v1" route="r13" depart="236" />
    <vehicle id="right_85" type="v1" route="r13" depart="237" />
    <vehicle id="right_86" type="v1" route="r13" depart="238" />
    <vehicle id="up_87" type="v1" route="r42" depart="239" />
    <vehicle id="right_88" type="v1" route="r13" depart="250" />
    <vehicle id="right_89" type="v1" route="r13" depart="251" />
    <vehicle id="right_90" type="v1" route="r13" depart="253" />
    <vehicle id="right_91" type="v1" route="r13" depart="255" />
    <vehicle id="up_92" type="v1" route="r42" depart="262" />
    <vehicle id="up_93" type="v1" route="r42" depart="265" />
    <vehicle id="right_94" type="v1" route="r13" depart="266" />
    <vehicle id="right_95" type="v1" route="r13" depart="267" />
    <vehicle id="up_96" type="v1" route="r42" depart="276" />
    <vehicle id="up_97" type="v1" route="r42" depart="280" />
    <vehicle id="right_98" type="v1" route="r13" depart="283" />
    <vehicle id="right_99" type="v1" route="r13" depart="286" />
    <vehicle id="up_100" type="v1" route="r42" depart="288" />
    <vehicle id="right_101" type="v1" route="r13" depart="289" />
    <vehicle id="right_102" type="v1" route="r13" depart="293" />
    <vehicle id="up_103" type="v1" route="r42" depart="293" />
    <vehicle id="up_104" type="v1" route="r42" depart="296" />
    <vehicle id="up_105" type="v1" route="r42" depart="298" />
    <vehicle id="up_106" type="v1" route="r42" depart="299" />
    <vehicle id="up_107" type="v1" route="r42" depart="301" />
    <vehicle id="right_108" type="v1" route="r13" depart="308" />
    <vehicle id="right_109" type="v1" route="r13" depart="309" />
    <vehicle id="right_110" type="v1" route="r13" depart="310" />
    <vehicle id="right_111" type="v1" route="r13" depart="311" />
    <vehicle id="up_112" type="v1" route="r42" depart="311" />
    <vehicle id="right_113" type="v1" route="r13" depart="312" />
    <vehicle id="right_114" type="v1" route="r13" depart="316" />
    <vehicle id="right_115" type="v1" route="r13" depart="317" />
    <vehicle id="up_116" type="v1" route="r42" depart="320" />
    <vehicle id="right_117" type="v1" route="r13" depart="322" />
    <vehicle id="right_118" type="v1" route="r13" depart="323" />
    <vehicle id="right_119" type="v1" route="r13" depart="325" />
    <vehicle id="right_120" type="v1" route="r13" depart="328" />
    <vehicle id="up_121" type="v1" route="r42" depart="329" />
    <vehicle id="right_122" type="v1" route="r13" depart="334" />
    <vehicle id="right_123" type="v1" route="r13" depart="337" />
    <vehicle id="right_124" type="v1" route="r13" depart="338" />
    <vehicle id="right_125" type="v1" route="r13" depart="340" />
    <vehicle id="up_126" type="v1" route="r42" depart="345" />
    <vehicle id="right_127" type="v1" route="r13" depart="352" />
    <vehicle id="right_128" type="v1" route="r13" depart="355" />
    <vehicle id="up_129" type="v1" route="r42" depart="356" />
    <vehicle id="right_130" type="v1" route="r13" depart="357" />
    <vehicle id="right_131" type="v1" route="r13" depart="358" />
    <vehicle id="right_132" type="v1" route="r13" depart="362" />
    <vehicle id="up_133" type="v1" route="r42" depart="368" />
    <vehicle id="right_134" type="v1" route="r13" depart="374" />
    <vehicle id="right_135" type="v1" route="r13" depart="378" />
    <vehicle id="right_136" type="v1" route="r13" depart="380" />
    <vehicle id="right_137" type="v1" route="r13" depart="382" />
    <vehicle id="up_138" type="v1" route="r42" depart="382" />
    <vehicle id="right_139" type="v1" route="r13" depart="385" />
    <vehicle id="up_140" type="v1" route="r42" depart="387" />
    <vehicle id="right_141" type="v1" route="r13" depart="388" />
    <vehicle id="up_142" type="v1" route="r42" depart="394" />
    <vehicle id="up_143" type="v1" route="r42" depart="395" />
    <vehicle id="up_144" type="v1" route="r42" depart="397" />
    <vehicle id="right_145" type="v1" route="r13" depart="398" />
    <vehicle id="right_146" type="v1" route="r13" depart="401" />
    <vehicle id="up_147" type="v1" route="r42" depart="402" />
    <vehicle id="right_148" type="v1" route="r13" depart="412" />
    <vehicle id="right_149" type="v1" route="r13" depart="414" />
    <vehicle id="right_150" type="v1" route="r13" depart="416" />
    <vehicle id="right_151" type="v1" route="r13" depart="419" />
    <vehicle id="up_152" type="v1" route="r42" depart="428" />
    <vehicle id="up_153" type="v1" route="r42" depart="430" />
    <vehicle id="right_154" type="v1" route="r13" depart="431" />
    <vehicle id="right_155" type="v1" route="r13" depart="433" />
    <vehicle id="up_156" type="v1" route="r42" depart="440" />
    <vehicle id="up_157" type="v1" route="r42" depart="443" />
    <vehicle id="up_158" type="v1" route="r42" depart="446" />
    <vehicle id="up_159" type="v1" route="r42" depart="447" />
    <vehicle id="up_160" type="v1" route="r42" depart="449" />
    <vehicle id="right_161" type="v1" route="r13" depart="452" />
    <vehicle id="up_162" type="v1" route="r42" depart="452" />
    <vehicle id="up_163" type="v1" route="r42" depart="454" />
    <vehicle id="up_164" type="v1" route="r42" depart="456" />
    <vehicle id="right_165" type="v1" route="r13" depart="457" />
    <vehicle id="up_166" type="v1" route="r42" depart="458" />
    <vehicle id="up_167" type="v1" route="r42" depart="460" />
    <vehicle id="up_168" type="v1" route="r42" depart="462" />
    <vehicle id="right_169" type="v1" route="r13" depart="464" />
    <vehicle id="right_170" type="v1" route="r13" depart="465" />
    <vehicle id="up_171" type="v1" route="r42" depart="470" />
    <vehicle id="up_172" type="v1" route="r42" depart="471" />
    <vehicle id="up_173" type="v1" route="r42" depart="473" />
    <vehicle id="up_174" type="v1" route="r42" depart="477" />
    <vehicle id="right_175" type="v1" route="r13" depart="481" />
    <vehicle id="right_176" type="v1" route="r13" depart="485" />
    <vehicle id="right_177" type="v1" route="r13" depart="488" />
    <vehicle id="right_178" type="v1" route="r13" depart="489" />
    <vehicle id="up_179" type="v1" route="r42" depart="492" />
    <vehicle id="up_180" type="v1" route="r42" depart="496" />
    <vehicle id="up_181" type="v1" route="r42" depart="501" />
    <vehicle id="up_182" type="v1" route="r42" depart="506" />
    <vehicle id="right_183" type="v1" route="r13" depart="508" />
    <vehicle id="up_184" type="v1" route="r42" depart="509" />
    <vehicle id="right_185" type="v1" route="r13" depart="512" />
    <vehicle id="right_186" type="v1" route="r13" depart="518" />
    <vehicle id="right_187" type="v1" route="r13" depart="522" />
    <vehicle id="right_188" type="v1" route="r13" depart="524" />
    <vehicle id="up_189" type="v1" route="r42" depart="525" />
    <vehicle id="right_190" type="v1" route="r13" depart="527" />
    <vehicle id="up_191" type="v1" route="r42" depart="527" />
    <vehicle id="right_192" type="v1" route="r13" depart="528" />
    <vehicle id="right_193" type="v1" route="r13" depart="530" />
    <vehicle id="up_194" type="v1" route="r42" depart="534" />
    <vehicle id="right_195" type="v1" route="r13" depart="535" />
    <vehicle id="up_196" type="v1" route="r42" depart="536" />
    <vehicle id="right_197" type="v1" route="r13" depart="538" />
    <vehicle id="up_198" type="v1" route="r42" depart="539" />
    <vehicle id="right_199" type="v1" route="r13" depart="541" />
    <vehicle id="up_200" type="v1" route="r42" depart="541" />
    <vehicle id="right_201" type="v1" route="r13" depart="551" />
    <vehicle id="up_202" type="v1" route="r42" depart="553" />
    <vehicle id="right_203" type="v1" route="r13" depart="554" />
    <vehicle id="up_204" type="v1" route="r42" depart="556" />
    <vehicle id="right_205" type="v1" route="r13" depart="557" />
    <vehicle id="right_206" type="v1" route="r13" depart="564" />
    <vehicle id="up_207" type="v1" route="r42" depart="571" />
    <vehicle id="right_208" type="v1" route="r13" depart="572" />
    <vehicle id="right_209" type="v1" route="r13" depart="577" />
    <vehicle id="right_210" type="v1" route="r13" depart="578" />
    <vehicle id="right_211" type="v1" route="r13" depart="580" />
    <vehicle id="up_212" type="v1" route="r42" depart="580" />
    <vehicle id="up_213" type="v1" route="r42" depart="582" />
    <vehicle id="right_214" type="v1" route="r13" depart="586" />
    <vehicle id="right_215" type="v1" route="r13" depart="589" />
    <vehicle id="right_216" type="v1" route="r13" depart="595" />
    <vehicle id="right_217" type="v1" route="r13" depart="596" />
    <vehicle id="up_218" type="v1" route="r42" depart="600" />
    <vehicle id="right_219" type="v1" route="r13" depart="601" />
    <vehicle id="right_220" type="v1" route="r13" depart="602" />
    <vehicle id="right_221" type="v1" route="r13" depart="603" />
    <vehicle id="up_222" type="v1" route="r42" depart="605" />
    <vehicle id="up_223" type="v1" route="r42" depart="609" />
    <vehicle id="right_224" type="v1" route="r13" depart="617" />
    <vehicle id="up_225" type="v1" route="r42" depart="619" />
    <vehicle id="up_226" type="v1" route="r42" depart="623" />
    <vehicle id="right_227" type="v1" route="r13" depart="625" />
    <vehicle id="up_228" type="v1" route="r42" depart="626" />
    <vehicle id="up_229" type="v1" route="r42" depart="637" />
    <vehicle id="right_230" type="v1" route="r13" depart="640" />
    <vehicle id="right_231" type="v1" route="r13" depart="656" />
    <vehicle id="right_232" type="v1" route="r13" depart="657" />
    <vehicle id="up_233" type="v1" route="r42" depart="659" />
    <vehicle id="up_234" type="v1" route="r42" depart="660" />
    <vehicle id="up_235" type="v1" route="r42" depart="661" />
    <vehicle id="up_236" type="v1" route="r42" depart="662" />
    <vehicle id="up_237" type="v1" route="r42" depart="667" />
    <vehicle id="up_238" type="v1" route="r42" depart="668" />
    <vehicle id="right_239" type="v1" route="r13" depart="671" />
    <vehicle id="up_240" type="v1" route="r42" depart="672" />
    <vehicle id="right_241" type="v1" route="r13" depart="673" />
    <vehicle id="up_242" type="v1" route="r42" depart="675" />
    <vehicle id="up_243" type="v1" route="r42" depart="678" />
    <vehicle id="up_244" type="v1" route="r42" depart="679" />
    <vehicle id="right_245" type="v1" route="r13" depart="681" />
    <vehicle id="right_246" type="v1" route="r13" depart="686" />
    <vehicle id="up_247" type="v1" route="r42" depart="688" />
    <vehicle id="up_248" type="v1" route="r42" depart="690" />
    <vehicle id="up_249" type="v1" route="r42" depart="692" />
    <vehicle id="right_250" type="v1" route="r13" depart="693" />
    <vehicle id="up_251" type="v1" route="r42" depart="695" />
    <vehicle id="right_252" type="v1" route="r13" depart="700" />
    <vehicle id="right_253" type="v1" route="r13" depart="705" />
    <vehicle id="up_254" type="v1" route="r42" depart="706" />
    <vehicle id="right_255" type="v1" route="r13" depart="710" />
    <vehicle id="up_256" type="v1" route="r42" depart="710" />
    <vehicle id="up_257" type="v1" route="r42" depart="711" />
    <vehicle id="right_258" type="v1" route="r13" depart="712" />
    <vehicle id="up_259" type="v1" route="r42" depart="716" />
    <vehicle id="right_260" type="v1" route="r13" depart="717" />
    <vehicle id="right_261" type="v1" route="r13" depart="718" />
    <vehicle id="up_262" type="v1" route="r42" depart="718" />
    <vehicle id="up_263" type="v1" route="r42" depart="721" />
    <vehicle id="up_264" type="v1" route="r42" depart="724" />
    <vehicle id="up_265" type="v1" route="r42" depart="725" />
    <vehicle id="right_266" type="v1" route="r13" depart="727" />
    <vehicle id="up_267" type="v1" route="r42" depart="727" />
    <vehicle id="right_268" type="v1" route="r13" depart="728" />
    <vehicle id="right_269" type="v1" route="r13" depart="731" />
    <vehicle id="right_270" type="v1" route="r13" depart="735" />
    <vehicle id="right_271" type="v1" route="r13" depart="736" />
    <vehicle id="right_272" type="v1" route="r13" depart="737" />
    <vehicle id="up_273" type="v1" route="r42" depart="744" />
    <vehicle id="right_274" type="v1" route="r13" depart="750" />
    <vehicle id="right_275" type="v1" route="r13" depart="752" />
    <vehicle id="up_276" type="v1" route="r42" depart="753" />
    <vehicle id="up_277" type="v1" route="r42" depart="754" />
    <vehicle id="up_278" type="v1" route="r42" depart="755" />
    <vehicle id="right_279" type="v1" route="r13" depart="757" />
    <vehicle id="up_280" type="v1" route="r42" depart="757" />
    <vehicle id="right_281" type="v1" route="r13" depart="759" />
    <vehicle id="up_282" type="v1" route="r42" depart="760" />
    <vehicle id="right_283" type="v1" route="r13" depart="761" />
    <vehicle id="up_284" type="v1" route="r42" depart="761" />
    <vehicle id="right_285" type="v1" route="r13" depart="762" />
    <vehicle id="right_286" type="v1" route="r13" depart="763" />
    <vehicle id="right_287" type="v1" route="r13" depart="766" />
    <vehicle id="up_288" type="v1" route="r42" depart="766" />
    <vehicle id="right_289" type="v1" route="r13" depart="768" />
    <vehicle id="right_290" type="v1" route="r13" depart="772" />
    <vehicle id="up_291" type="v1" route="r42" depart="775" />
    <vehicle id="up_292" type="v1" route="r42" depart="777" />
    <vehicle id="up_293" type="v1" route="r42" depart="783" />
    <vehicle id="right_294" type="v1" route="r13" depart="788" />
    <vehicle id="right_295" type="v1" route="r13" depart="789" />
    <vehicle id="right_296" type="v1" route="r13" depart="791" />
    <vehicle id="right_297" type="v1" route="r13" depart="794" />
    <vehicle id="right_298" type="v1" route="r13" depart="796" />
    <vehicle id="up_299" type="v1" route="r42" depart="805" />
    <vehicle id="right_300" type="v1" route="r13" depart="808" />
    <vehicle id="up_301" type="v1" route="r42" depart="809" />
    <vehicle id="up_302" type="v1" route="r42" depart="815" />
    <vehicle id="right_303" type="v1" route="r13" depart="818" />
    <vehicle id="up_304" type="v1" route="r42" depart="818" />
    <vehicle id="right_305" type="v1" route="r13" depart="819" />
    <vehicle id="right_306" type="v1" route="r13" depart="822" />
    <vehicle id="right_307" type="v1" route="r13" depart="824" />
    <vehicle id="right_308" type="v1" route="r13" depart="825" />
    <vehicle id="right_309" type="v1" route="r13" depart="832" />
    <vehicle id="up_310" type="v1" route="r42" depart="833" />
    <vehicle id="up_311" type="v1" route="r42" depart="834" />
    <vehicle id="up_312" type="v1" route="r42" depart="835" />
    <vehicle id="right_313" type="v1" route="r13" depart="838" />
    <vehicle id="right_314" type="v1" route="r13" depart="843" />
    <vehicle id="up_315" type="v1" route="r42" depart="843" />
    <vehicle id="right_316" type="v1" route="r13" depart="844" />
    <vehicle id="right_317" type="v1" route="r13" depart="845" />
    <vehicle id="right_318" type="v1" route="r13" depart="847" />
    <vehicle id="right_319" type="v1" route="r13" depart="849" />
    <vehicle id="right_320" type="v1" route="r13" depart="850" />
    <vehicle id="right_321" type="v1" route="r13" depart="851" />
    <vehicle id="right_322" type="v1" route="r13" depart="852" />
    <vehicle id="up_323" type="v1" route="r42" depart="854" />
    <vehicle id="up_324" type="v1" route="r42" depart="858" />
    <vehicle id="right_325" type="v1" route="r13" depart="859" />
    <vehicle id="right_326" type="v1" route="r13" depart="861" />
    <vehicle id="right_327" type="v1" route="r13" depart="869" />
    <vehicle id="right_328" type="v1" route="r13" depart="872" />
    <vehicle id="right_329" type="v1" route="r13" depart="874" />
    <vehicle id="up_330" type="v1" route="r42" depart="876" />
    <vehicle id="right_331" type="v1" route="r13" depart="877" />
    <vehicle id="right_332" type="v1" route="r13" depart="880" />
    <vehicle id="right_333" type="v1" route="r13" depart="881" />
    <vehicle id="right_334" type="v1" route="r13" depart="882" />
    <vehicle id="up_335" type="v1" route="r42" depart="883" />
    <vehicle id="right_336" type="v1" route="r13" depart="888" />
    <vehicle id="right_337" type="v1" route="r13" depart="893" />
    <vehicle id="up_338" type="v1" route="r42" depart="895" />
    <vehicle id="up_339" type="v1" route="r42" depart="896" />
    <vehicle id="right_340" type="v1" route="r13" depart="897" />
    <vehicle id="up_341" type="v1" route="r42" depart="899" />
    <vehicle id="right_342" type="v1" route="r13" depart="902" />
    <vehicle id="up_343" type="v1" route="r42" depart="904" />
    <vehicle id="up_344" type="v1" route="r42" depart="907" />
    <vehicle id="right_345" type="v1" route="r13" depart="911" />
    <vehicle id="right_346" type="v1" route="r13" depart="912" />
    <vehicle id="right_347" type="v1" route="r13" depart="914" />
    <vehicle id="right_348" type="v1" route="r13" depart="917" />
    <vehicle id="up_349" type="v1" route="r42" depart="918" />
    <vehicle id="right_350" type="v1" route="r13" depart="920" />
    <vehicle id="right_351" type="v1" route="r13" depart="921" />
    <vehicle id="right_352" type="v1" route="r13" depart="926" />
    <vehicle id="up_353" type="v1" route="r42" depart="926" />
    <vehicle id="right_354" type="v1" route="r13" depart="928" />
    <vehicle id="up_355" type="v1" route="r42" depart="930" />
    <vehicle id="right_356" type="v1" route="r13" depart="935" />
    <vehicle id="right_357" type="v1" route="r13" depart="936" />
    <vehicle id="up_358" type="v1" route="r42" depart="937" />
    <vehicle id="up_359" type="v1" route="r42" depart="938" />
    <vehicle id="right_360" type="v1" route="r13" depart="941" />
    <vehicle id="up_361" type="v1" route="r42" depart="941" />
    <vehicle id="up_362" type="v1" route="r42" depart="947" />
    <vehicle id="up_363" type="v1" route="r42" depart="948" />
    <vehicle id="up_364" type="v1" route="r42" depart="951" />
    <vehicle id="up_365" type="v1" route="r42" depart="953" />
    <vehicle id="right_366" type="v1" route="r13" depart="956" />
    <vehicle id="right_367" type="v1" route="r13" depart="957" />
    <vehicle id="right_368" type="v1" route="r13" depart="960" />
    <vehicle id="right_369" type="v1" route="r13" depart="961" />
    <vehicle id="up_370" type="v1" route="r42" depart="961" />
    <vehicle id="up_371" type="v1" route="r42" depart="964" />
    <vehicle id="up_372" type="v1" route="r42" depart="968" />
    <vehicle id="right_373" type="v1" route="r13" depart="969" />
    <vehicle id="right_374" type="v1" route="r13" depart="970" />
    <vehicle id="right_375" type="v1" route="r13" depart="971" />
    <vehicle id="right_376" type="v1" route="r13" depart="972" />
    <vehicle id="right_377" type="v1" route="r13" depart="973" />
    <vehicle id="right_378" type="v1" route="r13" depart="974" />
    <vehicle id="up_379" type="v1" route="r42" depart="974" />
    <vehicle id="right_380" type="v1" route="r13" depart="975" />
    <vehicle id="right_381" type="v1" route="r13" depart="976" />
    <vehicle id="up_382" type="v1" route="r42" depart="983" />
    <vehicle id="right_383" type="v1" route="r13" depart="988" />
    <vehicle id="up_384" type="v1" route="r42" depart="989" />
    <vehicle id="up_385" type="v1" route="r42" depart="990" />
    <vehicle id="right_386" type="v1" route="r13" depart="992" />
    <vehicle id="up_387" type="v1" route="r42" depart="992" />
    <vehicle id="right_388" type="v1" route="r13" depart="994" />
    <vehicle id="right_389" type="v1" route="r13" depart="995" />
    <vehicle id="up_390" type="v1" route="r42" depart="998" />
    <vehicle id="up_391" type="v1" route="r42" depart="1002" />
    <vehicle id="right_392" type="v1" route="r13" depart="1007" />
    <vehicle id="right_393" type="v1" route="r13" depart="1010" />
    <vehicle id="up_394" type="v1" route="r42" depart="1013" />
    <vehicle id="up_395" type="v1" route="r42" depart="1014" />
    <vehicle id="up_396" type="v1" route="r42" depart="1018" />
    <vehicle id="up_397" type="v1" route="r42" depart="1019" />
    <vehicle id="up_398" type="v1" route="r42" depart="1020" />
    <vehicle id="right_399" type="v1" route="r13" depart="1026" />
    <vehicle id="right_400" type="v1" route="r13" depart="1031" />
    <vehicle id="up_401" type="v1" route="r42" depart="1032" />
    <vehicle id="right_402" type="v1" route="r13" depart="1035" />
    <vehicle id="right_403" type="v1" route="r13" depart="1037" />
    <vehicle id="right_404" type="v1" route="r13" depart="1048" />
    <vehicle id="up_405" type="v1" route="r42" depart="1048" />
    <vehicle id="up_406" type="v1" route="r42" depart="1050" />
    <vehicle id="right_407" type="v1" route="r13" depart="1051" />
    <vehicle id="right_408" type="v1" route="r13" depart="1052" />
    <vehicle id="right_409" type="v1" route="r13" depart="1054" />
    <vehicle id="right_410" type="v1" route="r13" depart="1055" />
    <vehicle id="right_411" type="v1" route="r13" depart="1059" />
    <vehicle id="up_412" type="v1" route="r42" depart="1060" />
    <vehicle id="right_413" type="v1" route="r13" depart="1065" />
    <vehicle id="right_414" type="v1" route="r13" depart="1069" />
    <vehicle id="right_415" type="v1" route="r13" depart="1071" />
    <vehicle id="right_416" type="v1" route="r13" depart="1075" />
    <vehicle id="up_417" type="v1" route="r42" depart="1079" />
    <vehicle id="right_418" type="v1" route="r13" depart="1087" />
    <vehicle id="right_419" type="v1" route="r13" depart="1088" />
    <vehicle id="up_420" type="v1" route="r42" depart="1101" />
    <vehicle id="right_421" type="v1" route="r13" depart="1109" />
    <vehicle id="right_422" type="v1" route="r13" depart="1110" />
    <vehicle id="up_423" type="v1" route="r42" depart="1111" />
    <vehicle id="right_424" type="v1" route="r13" depart="1116" />
    <vehicle id="up_425" type="v1" route="r42" depart="1121" />
    <vehicle id="right_426" type="v1" route="r13" depart="1124" />
    <vehicle id="right_427" type="v1" route="r13" depart="1128" />
    <vehicle id="right_428" type="v1" route="r13" depart="1130" />
    <vehicle id="right_429" type="v1" route="r13" depart="1131" />
    <vehicle id="right_430" type="v1" route="r13" depart="1132" />
    <vehicle id="right_431" type="v1" route="r13" depart="1135" />
    <vehicle id="up_432" type="v1" route="r42" depart="1136" />
    <vehicle id="right_433" type="v1" route="r13" depart="1141" />
    <vehicle id="right_434" type="v1" route="r13" depart="1147" />
    <vehicle id="right_435" type="v1" route="r13" depart="1148" />
    <vehicle id="up_436" type="v1" route="r42" depart="1148" />
    <vehicle id="up_437" type="v1" route="r42" depart="1151" />
    <vehicle id="right_438" type="v1" route="r13" depart="1162" />
    <vehicle id="right_439" type="v1" route="r13" depart="1164" />
    <vehicle id="right_440" type="v1" route="r13" depart="1181" />
    <vehicle id="right_441" type="v1" route="r13" depart="1183" />
    <vehicle id="right_442" type="v1" route="r13" depart="1188" />
    <vehicle id="up_443" type="v1" route="r42" depart="1188" />
    <vehicle id="right_444" type="v1" route="r13" depart="1189" />
    <vehicle id="right_445" type="v1" route="r13" depart="1190" />
    <vehicle id="right_446" type="v1" route="r13" depart="1192" />
    <vehicle id="up_447" type="v1" route="r42" depart="1196" />
    <vehicle id="right_448" type="v1" route="r13" depart="1203" />
    <vehicle id="right_449" type="v1" route="r13" depart="1205" />
    <vehicle id="right_450" type="v1" route="r13" depart="1206" />
    <vehicle id="up_451" type="v1" route="r42" depart="1206" />
    <vehicle id="right_452" type="v1" route="r13" depart="1221" />
    <vehicle id="right_453" type="v1" route="r13" depart="1222" />
    <vehicle id="right_454" type="v1" route="r13" depart="1226" />
    <vehicle id="right_455" type="v1" route="r13" depart="1233" />
    <vehicle id="right_456" type="v1" route="r13" depart="1234" />
    <vehicle id="right_457" type="v1" route="r13" depart="1239" />
    <vehicle id="right_458" type="v1" route="r13" depart="1240" />
    <vehicle id="right_459" type="v1" route="r13" depart="1242" />