<routes>
        <vType id="v1" accel="2.6" decel="4.5" sigma="0.5" length="5" minGap="1" maxSpeed="55" guiShape="passenger"/>

        <route id="r13" edges="96027913#0 96027913#2 30186293 311389510#1" />
        <route id="r42" edges="-355113043#1 -24626686#2 -24626686#1 -34992983#3 -34992983#1" />
    <vehicle id="up_0" type="v1" route="r42" depart="1" />
    <vehicle id="right_1" type="v1" route="r13" depart="2" />
    <vehicle id="up_2" type="v1" route="r42" depart="6" />
    <vehicle id="up_3" type="v1" route="r42" depart="8" />
    <vehicle id="up_4" type="v1" route="r42" depart="14" />
    <vehicle id="right_5" type="v1" route="r13" depart="21" />
    <vehicle id="up_6" type="v1" route="r42" depart="24" />
    <vehicle id="up_7" type="v1" route="r42" depart="25" />
    <vehicle id="up_8" type="v1" route="r42" depart="26" />
    <vehicle id="right_9" type="v1" route="r13" depart="33" />
    <vehicle id="right_10" type="v1" route="r13" depart="35" />
    <vehicle id="up_11" type="v1" route="r42" depart="37" />
    <vehicle id="up_12" type="v1" route="r42" depart="38" />
    <vehicle id="right_13" type="v1" route="r13" depart="43" />
    <vehicle id="up_14" type="v1" route="r42" depart="44" />
    <vehicle id="right_15" type="v1" route="r13" depart="52" />
    <vehicle id="right_16" type="v1" route="r13" depart="55" />
    <vehicle id="right_17" type="v1" route="r13" depart="60" />
    <vehicle id="up_18" type="v1" route="r42" depart="61" />
    <vehicle id="up_19" type="v1" route="r42" depart="67" />
    <vehicle id="right_20" type="v1" route="r13" depart="71" />
    <vehicle id="up_21" type="v1" route="r42" depart="77" />
    <vehicle id="up_22" type="v1" route="r42" depart="78" />
    <vehicle id="right_23" type="v1" route="r13" depart="81" />
    <vehicle id="right_24" type="v1" route="r13" depart="82" />
    <vehicle id="right_25" type="v1" route="r13" depart="83" />
    <vehicle id="right_26" type="v1" route="r13" depart="85" />
    <vehicle id="right_27" type="v1" route="r13" depart="88" />
    <vehicle id="right_28" type="v1" route="r13" depart="89" />
    <vehicle id="up_29" type="v1" route="r42" depart="91" />
    <vehicle id="up_30" type="v1" route="r42" depart="98" />
    <vehicle id="right_31" type="v1" route="r13" depart="99" />
    <vehicle id="up_32" type="v1" route="r42" depart="100" />
    <vehicle id="right_33" type="v1" route="r13" depart="105" />
    <vehicle id="up_34" type="v1" route="r42" depart="105" />
    <vehicle id="up_35" type="v1" route="r42" depart="106" />
    <vehicle id="up_36" type="v1" route="r42" depart="107" />
    <vehicle id="up_37" type="v1" route="r42" depart="112" />
    <vehicle id="up_38" type="v1" route="r42" depart="113" />
    <vehicle id="right_39" type="v1" route="r13" depart="115" />
    <vehicle id="right_40" type="v1" route="r13" depart="120" />
    <vehicle id="right_41" type="v1" route="r13" depart="127" />
    <vehicle id="up_42" type="v1" route="r42" depart="132" />
    <vehicle id="right_43" type="v1" route="r13" depart="133" />
    <vehicle id="up_44" type="v1" route="r42" depart="133" />
    <vehicle id="right_45" type="v1" route="r13" depart="142" />
    <vehicle id="up_46" type="v1" route="r42" depart="142" />
    <vehicle id="right_47" type="v1" route="r13" depart="147" />
    <vehicle id="right_48" type="v1" route="r13" depart="148" />
    <vehicle id="up_49" type="v1" route="r42" depart="148" />
    <vehicle id="right_50" type="v1" route="r13" depart="149" />
    <vehicle id="up_51" type="v1" route="r42" depart="150" />
    <vehicle id="up_52" type="v1" route="r42" depart="151" />
    <vehicle id="up_53" type="v1" route="r42" depart="152" />
    <vehicle id="right_54" type="v1" route="r13" depart="154" />
    <vehicle id="up_55" type="v1" route="r42" depart="154" />
    <vehicle id="up_56" type="v1" route="r42" depart="155" />
    <vehicle id="up_57" type="v1" route="r42" depart="169" />
    <vehicle id="up_58" type="v1" route="r42" depart="171" />
    <vehicle id="up_59" type="v1" route="r42" depart="172" />
    <vehicle id="up_60" type="v1" route="r42" depart="182" />
    <vehicle id="up_61" type="v1" route="r42" depart="187" />
    <vehicle id="right_62" type="v1" route="r13" depart="189" />
    <vehicle id="right_63" type="v1" route="r13" depart="190" />
    <vehicle id="up_64" type="v1" route="r42" depart="190" />
    <vehicle id="up_65" type="v1" route="r42" depart="197" />
    <vehicle id="up_66" type="v1" route="r42" depart="198" />
    <vehicle id="up_67" type="v1" route="r42" depart="199" />
    <vehicle id="right_68" type="v1" route="r13" depart="203" />
    <vehicle id="right_69" type="v1" route="r13" depart="213" />
    <vehicle id="right_70" type="v1" route="r13" depart="217" />
    <vehicle id="up_71" type="v1" route="r42" depart="220" />
    <vehicle id="up_72" type="v1" route="r42" depart="222" />
    <vehicle id="up_73" type="v1" route="r42" depart="225" />
    <vehicle id="right_74" type="v1" route="r13" depart="226" />
    <vehicle id="up_75" type="v1" route="r42" depart="230" />
    <vehicle id="right_76" type="v1" route="r13" depart="231" />
    <vehicle id="right_77" type="v1" route="r13" depart="235" />
    <vehicle id="right_78" type="v1" route="r13" depart="241" />
    <vehicle id="up_79" type="v1" route="r42" depart="242" />
    <vehicle id="up_80" type="v1" route="r42" depart="243" />
    <vehicle id="right_81" type="v1" route="r13" depart="251" />
    <vehicle id="right_82" type="v1" route="r13" depart="252" />
    <vehicle id="right_83" type="v1" route="r13" depart="255" />
    <vehicle id="right_84" type="v1" route="r13" depart="261" />
    <vehicle id="up_85" type="v1" route="r42" depart="261" />
    <vehicle id="up_86" type="v1" route="r42" depart="262" />
    <vehicle id="right_87" type="v1" route="r13" depart="263" />
    <vehicle id="up_88" type="v1" route="r42" depart="276" />
    <vehicle id="up_89" type="v1" route="r42" depart="277" />
    <vehicle id="up_90" type="v1" route="r42" depart="280" />
    <vehicle id="up_91" type="v1" route="r42" depart="283" />
    <vehicle id="right_92" type="v1" route="r13" depart="285" />
    <vehicle id="right_93" type="v1" route="r13" depart="288" />
    <vehicle id="up_94" type="v1" route="r42" depart="295" />
    <vehicle id="up_95" type="v1" route="r42" depart="297" />
    <vehicle id="right_96" type="v1" route="r13" depart="300" />
    <vehicle id="right_97" type="v1" route="r13" depart="303" />
    <vehicle id="right_98" type="v1" route="r13" depart="311" />
    <vehicle id="right_99" type="v1" route="r13" depart="314" />
    <vehicle id="up_100" type="v1" route="r42" depart="316" />
    <vehicle id="right_101" type="v1" route="r13" depart="318" />
    <vehicle id="up_102" type="v1" route="r42" depart="322" />
    <vehicle id="right_103" type="v1" route="r13" depart="323" />
    <vehicle id="right_104" type="v1" route="r13" depart="326" />
    <vehicle id="right_105" type="v1" route="r13" depart="327" />
    <vehicle id="right_106" type="v1" route="r13" depart="329" />
    <vehicle id="right_107" type="v1" route="r13" depart="331" />
    <vehicle id="up_108" type="v1" route="r42" depart="339" />
    <vehicle id="up_109" type="v1" route="r42" depart="340" />
    <vehicle id="right_110" type="v1" route="r13" depart="341" />
    <vehicle id="up_111" type="v1" route="r42" depart="342" />
    <vehicle id="right_112" type="v1" route="r13" depart="343" />
    <vehicle id="up_113" type="v1" route="r42" depart="343" />
    <vehicle id="up_114" type="v1" route="r42" depart="347" />
    <vehicle id="up_115" type="v1" route="r42" depart="349" />
    <vehicle id="right_116" type="v1" route="r13" depart="351" />
    <vehicle id="up_117" type="v1" route="r42" depart="355" />
    <vehicle id="up_118" type="v1" route="r42" depart="356" />
    <vehicle id="up_119" type="v1" route="r42" depart="358" />
    <vehicle id="right_120" type="v1" route="r13" depart="360" />
    <vehicle id="up_121" type="v1" route="r42" depart="362" />
    <vehicle id="right_122" type="v1" route="r13" depart="367" />
    <vehicle id="right_123" type="v1" route="r13" depart="371" />
    <vehicle id="right_124" type="v1" route="r13" depart="372" />
    <vehicle id="right_125" type="v1" route="r13" depart="375" />
    <vehicle id="up_126" type="v1" route="r42" depart="378" />
    <vehicle id="right_127" type="v1" route="r13" depart="389" />
    <vehicle id="up_128" type="v1" route="r42" depart="389" />
    <vehicle id="up_129" type="v1" route="r42" depart="391" />
    <vehicle id="right_130" type="v1" route="r13" depart="393" />
    <vehicle id="right_131" type="v1" route="r13" depart="394" />
    <vehicle id="right_132" type="v1" route="r13" depart="399" />
    <vehicle id="up_133" type="v1" route="r42" depart="403" />
    <vehicle id="right_134" type="v1" route="r13" depart="413" />
    <vehicle id="right_135" type="v1" route="r13" depart="418" />
    <vehicle id="up_136" type="v1" route="r42" depart="418" />
    <vehicle id="up_137" type="v1" route="r42" depart="420" />
    <vehicle id="right_138" type="v1" route="r13" depart="421" />
    <vehicle id="up_139" type="v1" route="r42" depart="424" />
    <vehicle id="right_140" type="v1" route="r13" depart="425" />
    <vehicle id="up_141" type="v1" route="r42" depart="427" />
    <vehicle id="right_142" type="v1" route="r13" depart="432" />
    <vehicle id="right_143" type="v1" route="r13" depart="433" />
    <vehicle id="right_144" type="v1" route="r13" depart="435" />
    <vehicle id="up_145" type="v1" route="r42" depart="439" />
    <vehicle id="right_146" type="v1" route="r13" depart="440" />
    <vehicle id="up_147" type="v1" route="r42" depart="444" />
    <vehicle id="right_148" type="v1" route="r13" depart="452" />
    <vehicle id="right_149" type="v1" route="r13" depart="456" />
    <vehicle id="right_150" type="v1" route="r13" depart="457" />
    <vehicle id="right_151" type="v1" route="r13" depart="460" />
    <vehicle id="up_152" type="v1" route="r42" depart="470" />
    <vehicle id="up_153" type="v1" route="r42" depart="471" />
    <vehicle id="right_154" type="v1" route="r13" depart="476" />
    <vehicle id="right_155" type="v1" route="r13" depart="478" />
    <vehicle id="up_156" type="v1" route="r42" depart="482" />
    <vehicle id="up_157" type="v1" route="r42" depart="484" />
    <vehicle id="up_158" type="v1" route="r42" depart="488" />
    <vehicle id="up_159" type="v1" route="r42" depart="489" />
    <vehicle id="up_160" type="v1" route="r42" depart="490" />
    <vehicle id="up_161" type="v1" route="r42" depart="493" />
    <vehicle id="up_162" type="v1" route="r42" depart="499" />
    <vehicle id="right_163" type="v1" route="r13" depart="501" />
    <vehicle id="up_164" type="v1" route="r42" depart="501" />
    <vehicle id="up_165" type="v1" route="r42" depart="503" />
    <vehicle id="right_166" type="v1" route="r13" depart="504" />
    <vehicle id="right_167" type="v1" route="r13" depart="506" />
    <vehicle id="right_168" type="v1" route="r13" depart="508" />
    <vehicle id="up_169" type="v1" route="r42" depart="511" />
    <vehicle id="up_170" type="v1" route="r42" depart="513" />
    <vehicle id="right_171" type="v1" route="r13" depart="516" />
    <vehicle id="right_172" type="v1" route="r13" depart="517" />
    <vehicle id="right_173" type="v1" route="r13" depart="519" />
    <vehicle id="right_174" type="v1" route="r13" depart="523" />
    <vehicle id="up_175" type="v1" route="r42" depart="532" />
    <vehicle id="up_176" type="v1" route="r42" depart="537" />
    <vehicle id="right_177" type="v1" route="r13" depart="538" />
    <vehicle id="right_178" type="v1" route="r13" depart="539" />
    <vehicle id="up_179" type="v1" route="r42" depart="539" />
    <vehicle id="up_180" type="v1" route="r42" depart="544" />
    <vehicle id="up_181" type="v1" route="r42" depart="548" />
    <vehicle id="up_182" type="v1" route="r42" depart="553" />
    <vehicle id="up_183" type="v1" route="r42" depart="556" />
    <vehicle id="right_184" type="v1" route="r13" depart="562" />
    <vehicle id="up_185" type="v1" route="r42" depart="562" />
    <vehicle id="up_186" type="v1" route="r42" depart="569" />
    <vehicle id="up_187" type="v1" route="r42" depart="573" />
    <vehicle id="up_188" type="v1" route="r42" depart="576" />
    <vehicle id="right_189" type="v1" route="r13" depart="578" />
    <vehicle id="right_190" type="v1" route="r13" depart="580" />
    <vehicle id="up_191" type="v1" route="r42" depart="580" />
    <vehicle id="right_192" type="v1" route="r13" depart="581" />
    <vehicle id="right_193" type="v1" route="r13" depart="584" />
    <vehicle id="up_194" type="v1" route="r42" depart="587" />
    <vehicle id="up_195" type="v1" route="r42" depart="588" />
    <vehicle id="right_196" type="v1" route="r13" depart="589" />
    <vehicle id="up_197" type="v1" route="r42" depart="592" />
    <vehicle id="right_198" type="v1" route="r13" depart="593" />
    <vehicle id="right_199" type="v1" route="r13" depart="595" />
    <vehicle id="up_200" type="v1" route="r42" depart="596" />
    <vehicle id="right_201" type="v1" route="r13" depart="607" />
    <vehicle id="up_202" type="v1" route="r42" depart="608" />
    <vehicle id="right_203" type="v1" route="r13" depart="610" />
    <vehicle id="up_204" type="v1" route="r42" depart="611" />
    <vehicle id="right_205" type="v1" route="r13" depart="613" />
    <vehicle id="right_206" type="v1" route="r13" depart="622" />
    <vehicle id="up_207" type="v1" route="r42" depart="625" />
    <vehicle id="right_208" type="v1" route="r13" depart="632" />
    <vehicle id="up_209" type="v1" route="r42" depart="634" />
    <vehicle id="up_210" type="v1" route="r42" depart="636" />
    <vehicle id="right_211" type="v1" route="r13" depart="638" />
    <vehicle id="up_212" type="v1" route="r42" depart="638" />
    <vehicle id="up_213" type="v1" route="r42" depart="640" />
    <vehicle id="right_214" type="v1" route="r13" depart="645" />
    <vehicle id="right_215" type="v1" route="r13" depart="649" />
    <vehicle id="right_216" type="v1" route="r13" depart="656" />
    <vehicle id="right_217" type="v1" route="r13" depart="657" />
    <vehicle id="up_218" type="v1" route="r42" depart="658" />
    <vehicle id="right_219" type="v1" route="r13" depart="663" />
    <vehicle id="up_220" type="v1" route="r42" depart="663" />
    <vehicle id="right_221" type="v1" route="r13" depart="664" />
    <vehicle id="up_222" type="v1" route="r42" depart="664" />
    <vehicle id="up_223" type="v1" route="r42" depart="668" />
    <vehicle id="up_224" type="v1" route="r42" depart="678" />
    <vehicle id="right_225" type="v1" route="r13" depart="681" />
    <vehicle id="right_226" type="v1" route="r13" depart="685" />
    <vehicle id="right_227" type="v1" route="r13" depart="688" />
    <vehicle id="up_228" type="v1" route="r42" depart="688" />
    <vehicle id="up_229" type="v1" route="r42" depart="699" />
    <vehicle id="right_230" type="v1" route="r13" depart="706" />
    <vehicle id="up_231" type="v1" route="r42" depart="721" />
    <vehicle id="up_232" type="v1" route="r42" depart="722" />
    <vehicle id="right_233" type="v1" route="r13" depart="725" />
    <vehicle id="right_234" type="v1" route="r13" depart="726" />
    <vehicle id="right_235" type="v1" route="r13" depart="727" />
    <vehicle id="right_236" type="v1" route="r13" depart="728" />
    <vehicle id="right_237" type="v1" route="r13" depart="732" />
    <vehicle id="right_238" type="v1" route="r13" depart="733" />
    <vehicle id="right_239" type="v1" route="r13" depart="738" />
    <vehicle id="up_240" type="v1" route="r42" depart="739" />
    <vehicle id="right_241" type="v1" route="r13" depart="740" />
    <vehicle id="up_242" type="v1" route="r42" depart="742" />
    <vehicle id="up_243" type="v1" route="r42" depart="745" />
    <vehicle id="up_244" type="v1" route="r42" depart="746" />
    <vehicle id="right_245" type="v1" route="r13" depart="751" />
    <vehicle id="up_246" type="v1" route="r42" depart="755" />
    <vehicle id="right_247" type="v1" route="r13" depart="756" />
    <vehicle id="right_248" type="v1" route="r13" depart="758" />
    <vehicle id="right_249" type="v1" route="r13" depart="760" />
    <vehicle id="right_250" type="v1" route="r13" depart="763" />
    <vehicle id="up_251" type="v1" route="r42" depart="763" />
    <vehicle id="right_252" type="v1" route="r13" depart="771" />
    <vehicle id="up_253" type="v1" route="r42" depart="775" />
    <vehicle id="right_254" type="v1" route="r13" depart="778" />
    <vehicle id="right_255" type="v1" route="r13" depart="781" />
    <vehicle id="up_256" type="v1" route="r42" depart="781" />
    <vehicle id="up_257" type="v1" route="r42" depart="782" />
    <vehicle id="right_258" type="v1" route="r13" depart="783" />
    <vehicle id="up_259" type="v1" route="r42" depart="787" />
    <vehicle id="right_260" type="v1" route="r13" depart="789" />
    <vehicle id="up_261" type="v1" route="r42" depart="790" />
    <vehicle id="right_262" type="v1" route="r13" depart="791" />
    <vehicle id="right_263" type="v1" route="r13" depart="793" />
    <vehicle id="right_264" type="v1" route="r13" depart="796" />
    <vehicle id="right_265" type="v1" route="r13" depart="797" />
    <vehicle id="right_266" type="v1" route="r13" depart="800" />
    <vehicle id="up_267" type="v1" route="r42" depart="800" />
    <vehicle id="right_268" type="v1" route="r13" depart="801" />
    <vehicle id="right_269" type="v1" route="r13" depart="805" />
    <vehicle id="right_270" type="v1" route="r13" depart="809" />
    <vehicle id="right_271" type="v1" route="r13" depart="810" />
    <vehicle id="right_272" type="v1" route="r13" depart="812" />
    <vehicle id="up_273" type="v1" route="r42" depart="817" />
    <vehicle id="up_274" type="v1" route="r42" depart="826" />
    <vehicle id="right_275" type="v1" route="r13" depart="827" />
    <vehicle id="up_276" type="v1" route="r42" depart="827" />
    <vehicle id="up_277" type="v1" route="r42" depart="828" />
    <vehicle id="up_278" type="v1" route="r42" depart="829" />
    <vehicle id="up_279" type="v1" route="r42" depart="832" />
    <vehicle id="right_280" type="v1" route="r13" depart="834" />
    <vehicle id="up_281" type="v1" route="r42" depart="834" />
    <vehicle id="right_282" type="v1" route="r13" depart="836" />
    <vehicle id="up_283" type="v1" route="r42" depart="836" />
    <vehicle id="right_284" type="v1" route="r13" depart="837" />
    <vehicle id="up_285" type="v1" route="r42" depart="838" />
    <vehicle id="up_286" type="v1" route="r42" depart="840" />
    <vehicle id="right_287" type="v1" route="r13" depart="842" />
    <vehicle id="up_288" type="v1" route="r42" depart="843" />
    <vehicle id="right_289" type="v1" route="r13" depart="844" />
    <vehicle id="right_290" type="v1" route="r13" depart="848" />
    <vehicle id="up_291" type="v1" route="r42" depart="852" />
    <vehicle id="up_292" type="v1" route="r42" depart="854" />
    <vehicle id="up_293" type="v1" route="r42" depart="861" />
    <vehicle id="right_294" type="v1" route="r13" depart="868" />
    <vehicle id="right_295" type="v1" route="r13" depart="870" />
    <vehicle id="right_296" type="v1" route="r13" depart="871" />
    <vehicle id="right_297" type="v1" route="r13" depart="876" />
    <vehicle id="right_298" type="v1" route="r13" depart="878" />
    <vehicle id="up_299" type="v1" route="r42" depart="883" />
    <vehicle id="up_300" type="v1" route="r42" depart="887" />
    <vehicle id="right_301" type="v1" route="r13" depart="892" />
    <vehicle id="right_302" type="v1" route="r13" depart="897" />
    <vehicle id="up_303" type="v1" route="r42" depart="898" />
    <vehicle id="up_304" type="v1" route="r42" depart="900" />
    <vehicle id="right_305" type="v1" route="r13" depart="901" />
    <vehicle id="right_306" type="v1" route="r13" depart="904" />
    <vehicle id="right_307" type="v1" route="r13" depart="907" />
    <vehicle id="right_308" type="v1" route="r13" depart="908" />
    <vehicle id="up_309" type="v1" route="r42" depart="915" />
    <vehicle id="right_310" type="v1" route="r13" depart="916" />
    <vehicle id="right_311" type="v1" route="r13" depart="917" />
    <vehicle id="right_312" type="v1" route="r13" depart="918" />
    <vehicle id="up_313" type="v1" route="r42" depart="922" />
    <vehicle id="right_314" type="v1" route="r13" depart="926" />
    <vehicle id="right_315" type="v1" route="r13" depart="927" />
    <vehicle id="up_316" type="v1" route="r42" depart="929" />
    <vehicle id="up_317" type="v1" route="r42" depart="930" />
    <vehicle id="up_318" type="v1" route="r42" depart="934" />
    <vehicle id="up_319" type="v1" route="r42" depart="936" />
    <vehicle id="right_320" type="v1" route="r13" depart="937" />
    <vehicle id="up_321" type="v1" route="r42" depart="937" />
    <vehicle id="right_322" type="v1" route="r13" depart="938" />
    <vehicle id="up_323" type="v1" route="r42" depart="938" />
    <vehicle id="up_324" type="v1" route="r42" depart="942" />
    <vehicle id="right_325" type="v1" route="r13" depart="947" />
    <vehicle id="right_326" type="v1" route="r13" depart="949" />
    <vehicle id="right_327" type="v1" route="r13" depart="959" />
    <vehicle id="up_328" type="v1" route="r42" depart="960" />
    <vehicle id="up_329" type="v1" route="r42" depart="962" />
    <vehicle id="right_330" type="v1" route="r13" depart="963" />
    <vehicle id="up_331" type="v1" route="r42" depart="966" />
    <vehicle id="right_332" type="v1" route="r13" depart="969" />
    <vehicle id="up_333" type="v1" route="r42" depart="969" />
    <vehicle id="right_334" type="v1" route="r13" depart="970" />
    <vehicle id="up_335" type="v1" route="r42" depart="970" />
    <vehicle id="right_336" type="v1" route="r13" depart="979" />
    <vehicle id="up_337" type="v1" route="r42" depart="982" />
    <vehicle id="right_338" type="v1" route="r13" depart="984" />
    <vehicle id="right_339" type="v1" route="r13" depart="986" />
    <vehicle id="up_340" type="v1" route="r42" depart="987" />
    <vehicle id="right_341" type="v1" route="r13" depart="989" />
    <vehicle id="right_342" type="v1" route="r13" depart="993" />
    <vehicle id="up_343" type="v1" route="r42" depart="993" />
    <vehicle id="up_344" type="v1" route="r42" depart="996" />
</routes>
