<routes>
        <vType id="v1" accel="2.6" decel="4.5" sigma="0.5" length="5" minGap="1" maxSpeed="55" guiShape="passenger"/>

        <route id="r13" edges="96027913#0 96027913#2 30186293 311389510#1" />
        <route id="r42" edges="-355113043#1 -24626686#2 -24626686#1 -34992983#3 -34992983#1" />
    <vehicle id="right_0" type="v1" route="r13" depart="4" />
    <vehicle id="right_1" type="v1" route="r13" depart="5" />
    <vehicle id="up_2" type="v1" route="r42" depart="5" />
    <vehicle id="up_3" type="v1" route="r42" depart="8" />
    <vehicle id="up_4" type="v1" route="r42" depart="25" />
    <vehicle id="right_5" type="v1" route="r13" depart="29" />
    <vehicle id="right_6" type="v1" route="r13" depart="30" />
    <vehicle id="right_7" type="v1" route="r13" depart="33" />
    <vehicle id="up_8" type="v1" route="r42" depart="33" />
    <vehicle id="up_9" type="v1" route="r42" depart="35" />
    <vehicle id="right_10" type="v1" route="r13" depart="36" />
    <vehicle id="right_11" type="v1" route="r13" depart="41" />
    <vehicle id="right_12" type="v1" route="r13" depart="42" />
    <vehicle id="right_13" type="v1" route="r13" depart="43" />
    <vehicle id="right_14" type="v1" route="r13" depart="44" />
    <vehicle id="up_15" type="v1" route="r42" depart="46" />
    <vehicle id="up_16" type="v1" route="r42" depart="47" />
    <vehicle id="up_17" type="v1" route="r42" depart="63" />
    <vehicle id="right_18" type="v1" route="r13" depart="65" />
    <vehicle id="right_19" type="v1" route="r13" depart="73" />
    <vehicle id="up_20" type="v1" route="r42" depart="77" />
    <vehicle id="right_21" type="v1" route="r13" depart="78" />
    <vehicle id="right_22" type="v1" route="r13" depart="79" />
    <vehicle id="up_23" type="v1" route="r42" depart="81" />
    <vehicle id="right_24" type="v1" route="r13" depart="83" />
    <vehicle id="up_25" type="v1" route="r42" depart="88" />
    <vehicle id="up_26" type="v1" route="r42" depart="89" />
    <vehicle id="up_27" type="v1" route="r42" depart="95" />
    <vehicle id="right_28" type="v1" route="r13" depart="97" />
    <vehicle id="right_29" type="v1" route="r13" depart="98" />
    <vehicle id="right_30" type="v1" route="r13" depart="99" />
    <vehicle id="right_31" type="v1" route="r13" depart="105" />
    <vehicle id="up_32" type="v1" route="r42" depart="108" />
    <vehicle id="up_33" type="v1" route="r42" depart="117" />
    <vehicle id="up_34" type="v1" route="r42" depart="120" />
    <vehicle id="up_35" type="v1" route="r42" depart="125" />
    <vehicle id="up_36" type="v1" route="r42" depart="127" />
    <vehicle id="up_37" type="v1" route="r42" depart="128" />
    <vehicle id="up_38" type="v1" route="r42" depart="129" />
    <vehicle id="right_39" type="v1" route="r13" depart="138" />
    <vehicle id="right_40" type="v1" route="r13" depart="139" />
    <vehicle id="right_41" type="v1" route="r13" depart="154" />
    <vehicle id="right_42" type="v1" route="r13" depart="155" />
    <vehicle id="right_43" type="v1" route="r13" depart="156" />
    <vehicle id="right_44" type="v1" route="r13" depart="157" />
    <vehicle id="up_45" type="v1" route="r42" depart="163" />
    <vehicle id="right_46" type="v1" route="r13" depart="165" />
    <vehicle id="up_47" type="v1" route="r42" depart="165" />
    <vehicle id="right_48" type="v1" route="r13" depart="171" />
    <vehicle id="up_49" type="v1" route="r42" depart="173" />
    <vehicle id="right_50" type="v1" route="r13" depart="174" />
    <vehicle id="up_51" type="v1" route="r42" depart="180" />
    <vehicle id="up_52" type="v1" route="r42" depart="181" />
    <vehicle id="up_53" type="v1" route="r42" depart="182" />
    <vehicle id="up_54" type="v1" route="r42" depart="185" />
    <vehicle id="right_55" type="v1" route="r13" depart="187" />
    <vehicle id="right_56" type="v1" route="r13" depart="188" />
    <vehicle id="right_57" type="v1" route="r13" depart="197" />
    <vehicle id="right_58" type="v1" route="r13" depart="199" />
    <vehicle id="right_59" type="v1" route="r13" depart="208" />
    <vehicle id="up_60" type="v1" route="r42" depart="208" />
    <vehicle id="up_61" type="v1" route="r42" depart="220" />
    <vehicle id="up_62" type="v1" route="r42" depart="225" />
    <vehicle id="right_63" type="v1" route="r13" depart="230" />
    <vehicle id="up_64" type="v1" route="r42" depart="230" />
    <vehicle id="up_65" type="v1" route="r42" depart="233" />
    <vehicle id="up_66" type="v1" route="r42" depart="237" />
    <vehicle id="up_67" type="v1" route="r42" depart="238" />
    <vehicle id="right_68" type="v1" route="r13" depart="240" />
    <vehicle id="up_69" type="v1" route="r42" depart="241" />
    <vehicle id="up_70" type="v1" route="r42" depart="246" />
    <vehicle id="up_71" type="v1" route="r42" depart="253" />
    <vehicle id="right_72" type="v1" route="r13" depart="261" />
    <vehicle id="up_73" type="v1" route="r42" depart="261" />
    <vehicle id="up_74" type="v1" route="r42" depart="263" />
    <vehicle id="up_75" type="v1" route="r42" depart="265" />
    <vehicle id="right_76" type="v1" route="r13" depart="266" />
    <vehicle id="up_77" type="v1" route="r42" depart="272" />
    <vehicle id="right_78" type="v1" route="r13" depart="276" />
    <vehicle id="right_79" type="v1" route="r13" depart="277" />
    <vehicle id="up_80" type="v1" route="r42" depart="277" />
    <vehicle id="up_81" type="v1" route="r42" depart="284" />
    <vehicle id="right_82" type="v1" route="r13" depart="290" />
    <vehicle id="up_83" type="v1" route="r42" depart="294" />
    <vehicle id="right_84" type="v1" route="r13" depart="321" />
    <vehicle id="right_85" type="v1" route="r13" depart="322" />
    <vehicle id="up_86" type="v1" route="r42" depart="323" />
    <vehicle id="up_87" type="v1" route="r42" depart="325" />
    <vehicle id="up_88" type="v1" route="r42" depart="328" />
    <vehicle id="right_89" type="v1" route="r13" depart="333" />
    <vehicle id="up_90" type="v1" route="r42" depart="338" />
    <vehicle id="up_91" type="v1" route="r42" depart="347" />
    <vehicle id="up_92" type="v1" route="r42" depart="349" />
    <vehicle id="right_93" type="v1" route="r13" depart="358" />
    <vehicle id="right_94" type="v1" route="r13" depart="361" />
    <vehicle id="up_95" type="v1" route="r42" depart="361" />
    <vehicle id="up_96" type="v1" route="r42" depart="366" />
    <vehicle id="up_97" type="v1" route="r42" depart="368" />
    <vehicle id="right_98" type="v1" route="r13" depart="369" />
    <vehicle id="up_99" type="v1" route="r42" depart="375" />
    <vehicle id="right_100" type="v1" route="r13" depart="392" />
    <vehicle id="right_101" type="v1" route="r13" depart="395" />
    <vehicle id="up_102" type="v1" route="r42" depart="399" />
    <vehicle id="right_103" type="v1" route="r13" depart="417" />
    <vehicle id="right_104" type="v1" route="r13" depart="422" />
    <vehicle id="up_105" type="v1" route="r42" depart="422" />
    <vehicle id="up_106" type="v1" route="r42" depart="440" />
    <vehicle id="right_107" type="v1" route="r13" depart="445" />
    <vehicle id="up_108" type="v1" route="r42" depart="451" />
    <vehicle id="right_109" type="v1" route="r13" depart="456" />
    <vehicle id="right_110" type="v1" route="r13" depart="461" />
    <vehicle id="up_111" type="v1" route="r42" depart="462" />
    <vehicle id="right_112" type="v1" route="r13" depart="463" />
    <vehicle id="up_113" type="v1" route="r42" depart="463" />
    <vehicle id="right_114" type="v1" route="r13" depart="464" />
    <vehicle id="up_115" type="v1" route="r42" depart="466" />
    <vehicle id="right_116" type="v1" route="r13" depart="483" />
    <vehicle id="up_117" type="v1" route="r42" depart="485" />
    <vehicle id="right_118" type="v1" route="r13" depart="495" />
    <vehicle id="up_119" type="v1" route="r42" depart="499" />
    <vehicle id="right_120" type="v1" route="r13" depart="501" />
    <vehicle id="right_121" type="v1" route="r13" depart="504" />
    <vehicle id="right_122" type="v1" route="r13" depart="505" />
    <vehicle id="up_123" type="v1" route="r42" depart="508" />
    <vehicle id="right_124" type="v1" route="r13" depart="509" />
    <vehicle id="right_125" type="v1" route="r13" depart="510" />
    <vehicle id="right_126" type="v1" route="r13" depart="516" />
    <vehicle id="right_127" type="v1" route="r13" depart="529" />
    <vehicle id="up_128" type="v1" route="r42" depart="532" />
    <vehicle id="right_129" type="v1" route="r13" depart="535" />
    <vehicle id="right_130" type="v1" route="r13" depart="543" />
    <vehicle id="right_131" type="v1" route="r13" depart="544" />
    <vehicle id="up_132" type="v1" route="r42" depart="544" />
    <vehicle id="right_133" type="v1" route="r13" depart="545" />
    <vehicle id="up_134" type="v1" route="r42" depart="551" />
    <vehicle id="up_135" type="v1" route="r42" depart="553" />
    <vehicle id="right_136" type="v1" route="r13" depart="560" />
    <vehicle id="right_137" type="v1" route="r13" depart="561" />
    <vehicle id="right_138" type="v1" route="r13" depart="564" />
    <vehicle id="up_139" type="v1" route="r42" depart="575" />
    <vehicle id="right_140" type="v1" route="r13" depart="576" />
    <vehicle id="up_141" type="v1" route="r42" depart="577" />
    <vehicle id="up_142" type="v1" route="r42" depart="586" />
    <vehicle id="up_143" type="v1" route="r42" depart="590" />
    <vehicle id="up_144" type="v1" route="r42" depart="591" />
    <vehicle id="up_145" type="v1" route="r42" depart="592" />
    <vehicle id="up_146" type="v1" route="r42" depart="594" />
    <vehicle id="right_147" type="v1" route="r13" depart="595" />
    <vehicle id="up_148" type="v1" route="r42" depart="602" />
    <vehicle id="up_149" type="v1" route="r42" depart="605" />
    <vehicle id="up_150" type="v1" route="r42" depart="606" />
    <vehicle id="right_151" type="v1" route="r13" depart="612" />
    <vehicle id="up_152" type="v1" route="r42" depart="613" />
    <vehicle id="right_153" type="v1" route="r13" depart="614" />
    <vehicle id="right_154" type="v1" route="r13" depart="618" />
    <vehicle id="right_155" type="v1" route="r13" depart="619" />
    <vehicle id="right_156" type="v1" route="r13" depart="623" />
    <vehicle id="up_157" type="v1" route="r42" depart="625" />
    <vehicle id="right_158" type="v1" route="r13" depart="626" />
    <vehicle id="up_159" type="v1" route="r42" depart="626" />
    <vehicle id="up_160" type="v1" route="r42" depart="634" />
    <vehicle id="up_161" type="v1" route="r42" depart="635" />
    <vehicle id="up_162" type="v1" route="r42" depart="638" />
    <vehicle id="up_163" type="v1" route="r42" depart="650" />
    <vehicle id="up_164" type="v1" route="r42" depart="657" />
    <vehicle id="right_165" type="v1" route="r13" depart="664" />
    <vehicle id="up_166" type="v1" route="r42" depart="676" />
    <vehicle id="right_167" type="v1" route="r13" depart="678" />
    <vehicle id="up_168" type="v1" route="r42" depart="680" />
    <vehicle id="right_169" type="v1" route="r13" depart="682" />
    <vehicle id="right_170" type="v1" route="r13" depart="692" />
    <vehicle id="up_171" type="v1" route="r42" depart="703" />
    <vehicle id="right_172" type="v1" route="r13" depart="715" />
    <vehicle id="up_173" type="v1" route="r42" depart="719" />
    <vehicle id="up_174" type="v1" route="r42" depart="733" />
    <vehicle id="right_175" type="v1" route="r13" depart="736" />
    <vehicle id="up_176" type="v1" route="r42" depart="736" />
    <vehicle id="up_177" type="v1" route="r42" depart="738" />
    <vehicle id="right_178" type="v1" route="r13" depart="740" />
    <vehicle id="up_179" type="v1" route="r42" depart="741" />
    <vehicle id="up_180" type="v1" route="r42" depart="743" />
    <vehicle id="right_181" type="v1" route="r13" depart="751" />
    <vehicle id="right_182" type="v1" route="r13" depart="753" />
    <vehicle id="up_183" type="v1" route="r42" depart="758" />
    <vehicle id="right_184" type="v1" route="r13" depart="765" />
    <vehicle id="right_185" type="v1" route="r13" depart="768" />
    <vehicle id="up_186" type="v1" route="r42" depart="770" />
    <vehicle id="right_187" type="v1" route="r13" depart="772" />
    <vehicle id="up_188" type="v1" route="r42" depart="775" />
    <vehicle id="up_189" type="v1" route="r42" depart="776" />
    <vehicle id="up_190" type="v1" route="r42" depart="788" />
    <vehicle id="right_191" type="v1" route="r13" depart="803" />
    <vehicle id="right_192" type="v1" route="r13" depart="804" />
    <vehicle id="right_193" type="v1" route="r13" depart="813" />
    <vehicle id="right_194" type="v1" route="r13" depart="815" />
    <vehicle id="right_195" type="v1" route="r13" depart="816" />
    <vehicle id="right_196" type="v1" route="r13" depart="817" />
    <vehicle id="up_197" type="v1" route="r42" depart="819" />
    <vehicle id="right_198" type="v1" route="r13" depart="820" />
    <vehicle id="right_199" type="v1" route="r13" depart="821" />
    <vehicle id="up_200" type="v1" route="r42" depart="823" />
    <vehicle id="right_201" type="v1" route="r13" depart="834" />
    <vehicle id="right_202" type="v1" route="r13" depart="838" />
    <vehicle id="up_203" type="v1" route="r42" depart="847" />
    <vehicle id="right_204" type="v1" route="r13" depart="850" />
    <vehicle id="up_205" type="v1" route="r42" depart="851" />
    <vehicle id="right_206" type="v1" route="r13" depart="852" />
    <vehicle id="up_207" type="v1" route="r42" depart="852" />
    <vehicle id="right_208" type="v1" route="r13" depart="857" />
    <vehicle id="up_209" type="v1" route="r42" depart="873" />
    <vehicle id="right_210" type="v1" route="r13" depart="879" />
    <vehicle id="up_211" type="v1" route="r42" depart="883" />
    <vehicle id="right_212" type="v1" route="r13" depart="889" />
    <vehicle id="up_213" type="v1" route="r42" depart="891" />
    <vehicle id="up_214" type="v1" route="r42" depart="894" />
    <vehicle id="right_215" type="v1" route="r13" depart="895" />
    <vehicle id="up_216" type="v1" route="r42" depart="896" />
    <vehicle id="up_217" type="v1" route="r42" depart="897" />
    <vehicle id="right_218" type="v1" route="r13" depart="906" />
    <vehicle id="up_219" type="v1" route="r42" depart="912" />
    <vehicle id="right_220" type="v1" route="r13" depart="916" />
    <vehicle id="up_221" type="v1" route="r42" depart="921" />
    <vehicle id="right_222" type="v1" route="r13" depart="925" />
    <vehicle id="right_223" type="v1" route="r13" depart="929" />
    <vehicle id="up_224" type="v1" route="r42" depart="935" />
    <vehicle id="up_225" type="v1" route="r42" depart="940" />
    <vehicle id="right_226" type="v1" route="r13" depart="942" />
    <vehicle id="up_227" type="v1" route="r42" depart="945" />
    <vehicle id="right_228" type="v1" route="r13" depart="949" />
    <vehicle id="right_229" type="v1" route="r13" depart="953" />
    <vehicle id="up_230" type="v1" route="r42" depart="961" />
    <vehicle id="up_231" type="v1" route="r42" depart="967" />
    <vehicle id="up_232" type="v1" route="r42" depart="969" />
    <vehicle id="up_233" type="v1" route="r42" depart="988" />
    <vehicle id="right_234" type="v1" route="r13" depart="989" />
    <vehicle id="up_235" type="v1" route="r42" depart="991" />
</routes>
