<routes>
        <vType id="v1" accel="2.6" decel="4.5" sigma="0.5" length="5" minGap="1" maxSpeed="55" guiShape="passenger"/>

        <route id="r13" edges="96027913#0 96027913#2 30186293 311389510#1" />
        <route id="r42" edges="-355113043#1 -24626686#2 -24626686#1 -34992983#3 -34992983#1" />
    <vehicle id="up_0" type="v1" route="r42" depart="5" />
    <vehicle id="up_1" type="v1" route="r42" depart="6" />
    <vehicle id="up_2" type="v1" route="r42" depart="8" />
    <vehicle id="right_3" type="v1" route="r13" depart="11" />
    <vehicle id="up_4" type="v1" route="r42" depart="11" />
    <vehicle id="up_5" type="v1" route="r42" depart="13" />
    <vehicle id="right_6" type="v1" route="r13" depart="19" />
    <vehicle id="right_7" type="v1" route="r13" depart="20" />
    <vehicle id="right_8" type="v1" route="r13" depart="24" />
    <vehicle id="right_9" type="v1" route="r13" depart="27" />
    <vehicle id="up_10" type="v1" route="r42" depart="27" />
    <vehicle id="right_11" type="v1" route="r13" depart="33" />
    <vehicle id="up_12" type="v1" route="r42" depart="33" />
    <vehicle id="up_13" type="v1" route="r42" depart="36" />
    <vehicle id="right_14" type="v1" route="r13" depart="47" />
    <vehicle id="right_15" type="v1" route="r13" depart="49" />
    <vehicle id="right_16" type="v1" route="r13" depart="51" />
    <vehicle id="up_17" type="v1" route="r42" depart="52" />
    <vehicle id="up_18" type="v1" route="r42" depart="56" />
    <vehicle id="up_19" type="v1" route="r42" depart="60" />
    <vehicle id="right_20" type="v1" route="r13" depart="61" />
    <vehicle id="up_21" type="v1" route="r42" depart="61" />
    <vehicle id="right_22" type="v1" route="r13" depart="62" />
    <vehicle id="up_23" type="v1" route="r42" depart="62" />
    <vehicle id="up_24" type="v1" route="r42" depart="64" />
    <vehicle id="up_25" type="v1" route="r42" depart="65" />
    <vehicle id="right_26" type="v1" route="r13" depart="68" />
    <vehicle id="right_27" type="v1" route="r13" depart="81" />
    <vehicle id="up_28" type="v1" route="r42" depart="90" />
    <vehicle id="up_29" type="v1" route="r42" depart="91" />
    <vehicle id="up_30" type="v1" route="r42" depart="92" />
    <vehicle id="up_31" type="v1" route="r42" depart="94" />
    <vehicle id="right_32" type="v1" route="r13" depart="97" />
    <vehicle id="right_33" type="v1" route="r13" depart="98" />
    <vehicle id="right_34" type="v1" route="r13" depart="100" />
    <vehicle id="up_35" type="v1" route="r42" depart="101" />
    <vehicle id="right_36" type="v1" route="r13" depart="104" />
    <vehicle id="up_37" type="v1" route="r42" depart="105" />
    <vehicle id="right_38" type="v1" route="r13" depart="110" />
    <vehicle id="up_39" type="v1" route="r42" depart="110" />
    <vehicle id="right_40" type="v1" route="r13" depart="115" />
    <vehicle id="right_41" type="v1" route="r13" depart="128" />
    <vehicle id="up_42" type="v1" route="r42" depart="131" />
    <vehicle id="right_43" type="v1" route="r13" depart="134" />
    <vehicle id="right_44" type="v1" route="r13" depart="143" />
    <vehicle id="up_45" type="v1" route="r42" depart="150" />
    <vehicle id="right_46" type="v1" route="r13" depart="153" />
    <vehicle id="right_47" type="v1" route="r13" depart="158" />
    <vehicle id="right_48" type="v1" route="r13" depart="172" />
    <vehicle id="up_49" type="v1" route="r42" depart="176" />
    <vehicle id="up_50" type="v1" route="r42" depart="177" />
    <vehicle id="right_51" type="v1" route="r13" depart="180" />
    <vehicle id="up_52" type="v1" route="r42" depart="186" />
    <vehicle id="right_53" type="v1" route="r13" depart="187" />
    <vehicle id="right_54" type="v1" route="r13" depart="188" />
    <vehicle id="right_55" type="v1" route="r13" depart="191" />
    <vehicle id="up_56" type="v1" route="r42" depart="192" />
    <vehicle id="right_57" type="v1" route="r13" depart="194" />
    <vehicle id="right_58" type="v1" route="r13" depart="196" />
    <vehicle id="right_59" type="v1" route="r13" depart="198" />
    <vehicle id="right_60" type="v1" route="r13" depart="202" />
    <vehicle id="up_61" type="v1" route="r42" depart="203" />
    <vehicle id="up_62" type="v1" route="r42" depart="206" />
    <vehicle id="right_63" type="v1" route="r13" depart="216" />
    <vehicle id="up_64" type="v1" route="r42" depart="219" />
    <vehicle id="up_65" type="v1" route="r42" depart="220" />
    <vehicle id="up_66" type="v1" route="r42" depart="222" />
    <vehicle id="right_67" type="v1" route="r13" depart="228" />
    <vehicle id="up_68" type="v1" route="r42" depart="228" />
    <vehicle id="up_69" type="v1" route="r42" depart="231" />
    <vehicle id="right_70" type="v1" route="r13" depart="234" />
    <vehicle id="right_71" type="v1" route="r13" depart="235" />
    <vehicle id="right_72" type="v1" route="r13" depart="236" />
    <vehicle id="right_73" type="v1" route="r13" depart="239" />
    <vehicle id="right_74" type="v1" route="r13" depart="245" />
    <vehicle id="up_75" type="v1" route="r42" depart="247" />
    <vehicle id="up_76" type="v1" route="r42" depart="248" />
    <vehicle id="up_77" type="v1" route="r42" depart="254" />
    <vehicle id="right_78" type="v1" route="r13" depart="255" />
    <vehicle id="up_79" type="v1" route="r42" depart="256" />
    <vehicle id="up_80" type="v1" route="r42" depart="257" />
    <vehicle id="up_81" type="v1" route="r42" depart="261" />
    <vehicle id="right_82" type="v1" route="r13" depart="262" />
    <vehicle id="up_83" type="v1" route="r42" depart="264" />
    <vehicle id="right_84" type="v1" route="r13" depart="266" />
    <vehicle id="right_85" type="v1" route="r13" depart="268" />
    <vehicle id="up_86" type="v1" route="r42" depart="269" />
    <vehicle id="right_87" type="v1" route="r13" depart="271" />
    <vehicle id="up_88" type="v1" route="r42" depart="271" />
    <vehicle id="right_89" type="v1" route="r13" depart="273" />
    <vehicle id="up_90" type="v1" route="r42" depart="273" />
    <vehicle id="right_91" type="v1" route="r13" depart="276" />
    <vehicle id="up_92" type="v1" route="r42" depart="278" />
    <vehicle id="right_93" type="v1" route="r13" depart="280" />
    <vehicle id="up_94" type="v1" route="r42" depart="280" />
    <vehicle id="right_95" type="v1" route="r13" depart="288" />
    <vehicle id="right_96" type="v1" route="r13" depart="289" />
    <vehicle id="up_97" type="v1" route="r42" depart="291" />
    <vehicle id="up_98" type="v1" route="r42" depart="292" />
    <vehicle id="up_99" type="v1" route="r42" depart="295" />
    <vehicle id="right_100" type="v1" route="r13" depart="298" />
    <vehicle id="up_101" type="v1" route="r42" depart="298" />
</routes>
