<?xml version="1.0" encoding="UTF-8"?>

<!-- generated on 2022-05-16 21:56:41 by Eclipse SUMO netedit Version 1.10.0
<configuration xmlns:xsi="http://www.w3.org/2001/XMLSchema-instance" xsi:noNamespaceSchemaLocation="http://sumo.dlr.de/xsd/netconvertConfiguration.xsd">

    <input>
        <sumo-net-file value="/Users/YingqingChen/yqchenn@bu.edu%20-%20Google%20Drive/我的云端硬盘/Simulation/intersection/tlc_single_straight.net.xml"/>
    </input>

    <output>
        <output-file value="/Users/YingqingChen/yqchenn@bu.edu%20-%20Google%20Drive/我的云端硬盘/Simulation/intersection/tlc_single_straight.net.xml"/>
    </output>

    <processing>
        <geometry.min-radius.fix.railways value="false"/>
        <geometry.max-grade.fix value="false"/>
        <offset.disable-normalization value="true"/>
        <lefthand value="false"/>
    </processing>

    <junctions>
        <no-turnarounds value="true"/>
        <junctions.corner-detail value="5"/>
        <junctions.limit-turn-speed value="5.5"/>
        <rectangular-lane-cut value="false"/>
    </junctions>

    <pedestrian>
        <walkingareas value="false"/>
    </pedestrian>

    <report>
        <aggregate-warnings value="5"/>
    </report>

</configuration>
-->

<net version="1.9" junctionCornerDetail="5" limitTurnSpeed="5.50" xmlns:xsi="http://www.w3.org/2001/XMLSchema-instance" xsi:noNamespaceSchemaLocation="http://sumo.dlr.de/xsd/net_file.xsd">

    <location netOffset="0.00,0.00" convBoundary="-26.74,-4.37,96.41,90.30" origBoundary="-10000000000.00,-10000000000.00,10000000000.00,10000000000.00" projParameter="!"/>

    <type id="edgeType_0"/>

    <edge id=":n0_0" function="internal">
        <lane id=":n0_0_0" index="0" speed="13.89" length="14.83" shape="47.67,42.28 41.37,28.85"/>
    </edge>
    <edge id=":n0_1" function="internal">
        <lane id=":n0_1_0" index="0" speed="13.89" length="14.66" shape="53.13,32.90 49.81,34.54 46.62,36.28 43.50,38.14 40.38,40.13"/>
    </edge>
    <edge id=":n0_2" function="internal">
        <lane id=":n0_2_0" index="0" speed="13.89" length="14.99" shape="44.23,27.42 50.60,40.99"/>
    </edge>
    <edge id=":n0_3" function="internal">
        <lane id=":n0_3_0" index="0" speed="13.89" length="15.11" shape="38.62,37.46 41.80,35.43 45.06,33.50 48.38,31.68 51.75,30.00"/>
    </edge>

    <edge id="e01" from="n0" to="n1" priority="2" length="200.00">
        <lane id="e01_0" index="0" speed="13.89" length="200.00" shape="40.38,40.13 -25.86,83.87"/>
    </edge>
    <edge id="e02" from="n0" to="n2" priority="1" length="150.00">
        <lane id="e02_0" index="0" speed="13.89" length="150.00" shape="50.60,40.99 72.00,89.66"/>
    </edge>
    <edge id="e03" from="n0" to="n3" priority="1" length="120.00">
        <lane id="e03_0" index="0" speed="13.89" length="120.00" shape="51.75,30.00 95.73,9.17"/>
    </edge>
    <edge id="e04" from="n0" to="n4" priority="-1" length="100.00">
        <lane id="e04_0" index="0" speed="13.89" length="100.00" shape="41.37,28.85 25.01,-3.65"/>
    </edge>
    <edge id="e10" from="n1" to="n0" priority="-1" length="200.00">
        <lane id="e10_0" index="0" speed="13.89" length="200.00" shape="-27.62,81.19 38.62,37.46"/>
    </edge>
    <edge id="e20" from="n2" to="n0" priority="-1" length="150.00">
        <lane id="e20_0" index="0" speed="13.89" length="150.00" shape="69.08,90.94 47.67,42.28"/>
    </edge>
    <edge id="e30" from="n3" to="n0" priority="-1" length="120.00">
        <lane id="e30_0" index="0" speed="13.89" length="120.00" shape="97.09,12.07 53.13,32.90"/>
    </edge>
    <edge id="e40" from="n4" to="n0" priority="-1" length="100.00">
        <lane id="e40_0" index="0" speed="13.89" length="100.00" shape="27.87,-5.09 44.23,27.42"/>
    </edge>

    <tlLogic id="n1" type="static" programID="0" offset="0">
        <phase duration="200" state="GrGr"/>
        <phase duration="200" state="rGrG"/>
    </tlLogic>

    <junction id="n0" type="traffic_light" x="46.00" y="34.50" incLanes="e20_0 e30_0 e40_0 e10_0" intLanes=":n0_0_0 :n0_1_0 :n0_2_0 :n0_3_0" shape="46.21,42.92 52.07,40.34 51.43,37.77 51.56,36.70 52.01,35.77 52.76,34.98 53.81,34.34 51.07,28.56 48.86,29.11 47.91,28.95 47.06,28.49 46.31,27.74 45.66,26.70 39.94,29.57 40.55,32.00 40.35,33.12 39.82,34.18 38.95,35.18 37.74,36.12 41.26,41.46 43.30,40.65 44.17,40.73 44.95,41.13 45.63,41.86" customShape="1">
        <request index="0" response="0000" foes="1010" cont="0"/>
        <request index="1" response="0101" foes="0101" cont="0"/>
        <request index="2" response="0000" foes="1010" cont="0"/>
        <request index="3" response="0101" foes="0101" cont="0"/>
    </junction>
    <junction id="n1" type="dead_end" x="-26.74" y="82.53" incLanes="e01_0" intLanes="" shape="-26.74,82.53 -24.98,85.20 -26.74,82.53"/>
    <junction id="n2" type="dead_end" x="70.54" y="90.30" incLanes="e02_0" intLanes="" shape="70.54,90.30 73.47,89.01 70.54,90.30"/>
    <junction id="n3" type="dead_end" x="96.41" y="10.62" incLanes="e03_0" intLanes="" shape="96.41,10.62 95.04,7.73 96.41,10.62"/>
    <junction id="n4" type="dead_end" x="26.44" y="-4.37" incLanes="e04_0" intLanes="" shape="26.44,-4.37 23.58,-2.93 26.44,-4.37"/>

    <connection from="e10" to="e03" fromLane="0" toLane="0" via=":n0_3_0" tl="n1" linkIndex="3" dir="s" state="o"/>
    <connection from="e20" to="e04" fromLane="0" toLane="0" via=":n0_0_0" tl="n1" linkIndex="0" dir="s" state="O"/>
    <connection from="e30" to="e01" fromLane="0" toLane="0" via=":n0_1_0" tl="n1" linkIndex="1" dir="s" state="o"/>
    <connection from="e40" to="e02" fromLane="0" toLane="0" via=":n0_2_0" tl="n1" linkIndex="2" dir="s" state="O"/>

    <connection from=":n0_0" to="e04" fromLane="0" toLane="0" dir="s" state="M"/>
    <connection from=":n0_1" to="e01" fromLane="0" toLane="0" dir="s" state="M"/>
    <connection from=":n0_2" to="e02" fromLane="0" toLane="0" dir="s" state="M"/>
    <connection from=":n0_3" to="e03" fromLane="0" toLane="0" dir="s" state="M"/>

</net>
