<routes>
        <vType id="v1" accel="2.6" decel="4.5" sigma="0.5" length="5" minGap="2.5" maxSpeed="55" guiShape="passenger"/>

        <route id="r13" edges="e10 e03" />
        <route id="r42" edges="e40 e02" />
    <vehicle id="up_0" type="v1" route="r42" depart="1" />
    <vehicle id="up_1" type="v1" route="r42" depart="2" />
    <vehicle id="right_2" type="v1" route="r13" depart="4" />
    <vehicle id="right_3" type="v1" route="r13" depart="5" />
    <vehicle id="right_4" type="v1" route="r13" depart="6" />
    <vehicle id="right_5" type="v1" route="r13" depart="7" />
    <vehicle id="right_6" type="v1" route="r13" depart="8" />
    <vehicle id="right_7" type="v1" route="r13" depart="9" />
    <vehicle id="right_8" type="v1" route="r13" depart="10" />
    <vehicle id="right_9" type="v1" route="r13" depart="11" />
    <vehicle id="right_10" type="v1" route="r13" depart="12" />
    <vehicle id="right_11" type="v1" route="r13" depart="13" />
    <vehicle id="right_12" type="v1" route="r13" depart="15" />
    <vehicle id="right_13" type="v1" route="r13" depart="16" />
    <vehicle id="right_14" type="v1" route="r13" depart="19" />
    <vehicle id="right_15" type="v1" route="r13" depart="20" />
    <vehicle id="right_16" type="v1" route="r13" depart="21" />
    <vehicle id="right_17" type="v1" route="r13" depart="22" />
    <vehicle id="right_18" type="v1" route="r13" depart="23" />
    <vehicle id="right_19" type="v1" route="r13" depart="24" />
    <vehicle id="right_20" type="v1" route="r13" depart="25" />
    <vehicle id="right_21" type="v1" route="r13" depart="26" />
    <vehicle id="right_22" type="v1" route="r13" depart="27" />
    <vehicle id="right_23" type="v1" route="r13" depart="29" />
    <vehicle id="right_24" type="v1" route="r13" depart="31" />
    <vehicle id="right_25" type="v1" route="r13" depart="34" />
    <vehicle id="up_26" type="v1" route="r42" depart="34" />
    <vehicle id="right_27" type="v1" route="r13" depart="35" />
    <vehicle id="right_28" type="v1" route="r13" depart="36" />
    <vehicle id="right_29" type="v1" route="r13" depart="37" />
    <vehicle id="right_30" type="v1" route="r13" depart="39" />
    <vehicle id="right_31" type="v1" route="r13" depart="40" />
    <vehicle id="up_32" type="v1" route="r42" depart="40" />
    <vehicle id="right_33" type="v1" route="r13" depart="41" />
    <vehicle id="right_34" type="v1" route="r13" depart="42" />
    <vehicle id="right_35" type="v1" route="r13" depart="43" />
    <vehicle id="right_36" type="v1" route="r13" depart="44" />
    <vehicle id="right_37" type="v1" route="r13" depart="45" />
    <vehicle id="right_38" type="v1" route="r13" depart="46" />
    <vehicle id="right_39" type="v1" route="r13" depart="47" />
    <vehicle id="right_40" type="v1" route="r13" depart="48" />
    <vehicle id="right_41" type="v1" route="r13" depart="49" />
    <vehicle id="right_42" type="v1" route="r13" depart="50" />
    <vehicle id="right_43" type="v1" route="r13" depart="51" />
    <vehicle id="right_44" type="v1" route="r13" depart="52" />
    <vehicle id="right_45" type="v1" route="r13" depart="53" />
    <vehicle id="right_46" type="v1" route="r13" depart="54" />
    <vehicle id="right_47" type="v1" route="r13" depart="55" />
    <vehicle id="right_48" type="v1" route="r13" depart="56" />
    <vehicle id="up_49" type="v1" route="r42" depart="56" />
    <vehicle id="right_50" type="v1" route="r13" depart="57" />
    <vehicle id="right_51" type="v1" route="r13" depart="58" />
    <vehicle id="right_52" type="v1" route="r13" depart="59" />
    <vehicle id="right_53" type="v1" route="r13" depart="60" />
    <vehicle id="up_54" type="v1" route="r42" depart="60" />
    <vehicle id="right_55" type="v1" route="r13" depart="61" />
    <vehicle id="right_56" type="v1" route="r13" depart="62" />
    <vehicle id="right_57" type="v1" route="r13" depart="63" />
    <vehicle id="right_58" type="v1" route="r13" depart="64" />
    <vehicle id="right_59" type="v1" route="r13" depart="65" />
    <vehicle id="right_60" type="v1" route="r13" depart="66" />
    <vehicle id="up_61" type="v1" route="r42" depart="66" />
    <vehicle id="right_62" type="v1" route="r13" depart="67" />
    <vehicle id="right_63" type="v1" route="r13" depart="69" />
    <vehicle id="right_64" type="v1" route="r13" depart="70" />
    <vehicle id="right_65" type="v1" route="r13" depart="71" />
    <vehicle id="right_66" type="v1" route="r13" depart="72" />
    <vehicle id="right_67" type="v1" route="r13" depart="73" />
    <vehicle id="right_68" type="v1" route="r13" depart="74" />
    <vehicle id="right_69" type="v1" route="r13" depart="75" />
    <vehicle id="right_70" type="v1" route="r13" depart="76" />
    <vehicle id="right_71" type="v1" route="r13" depart="77" />
    <vehicle id="right_72" type="v1" route="r13" depart="78" />
    <vehicle id="right_73" type="v1" route="r13" depart="79" />
    <vehicle id="up_74" type="v1" route="r42" depart="79" />
    <vehicle id="right_75" type="v1" route="r13" depart="80" />
    <vehicle id="right_76" type="v1" route="r13" depart="81" />
    <vehicle id="right_77" type="v1" route="r13" depart="82" />
    <vehicle id="right_78" type="v1" route="r13" depart="83" />
    <vehicle id="up_79" type="v1" route="r42" depart="83" />
    <vehicle id="right_80" type="v1" route="r13" depart="84" />
    <vehicle id="up_81" type="v1" route="r42" depart="84" />
    <vehicle id="right_82" type="v1" route="r13" depart="85" />
    <vehicle id="right_83" type="v1" route="r13" depart="86" />
    <vehicle id="right_84" type="v1" route="r13" depart="87" />
    <vehicle id="right_85" type="v1" route="r13" depart="88" />
    <vehicle id="right_86" type="v1" route="r13" depart="89" />
    <vehicle id="right_87" type="v1" route="r13" depart="90" />
    <vehicle id="right_88" type="v1" route="r13" depart="91" />
    <vehicle id="right_89" type="v1" route="r13" depart="92" />
    <vehicle id="up_90" type="v1" route="r42" depart="92" />
    <vehicle id="right_91" type="v1" route="r13" depart="93" />
    <vehicle id="right_92" type="v1" route="r13" depart="94" />
    <vehicle id="right_93" type="v1" route="r13" depart="95" />
    <vehicle id="up_94" type="v1" route="r42" depart="95" />
    <vehicle id="right_95" type="v1" route="r13" depart="96" />
    <vehicle id="right_96" type="v1" route="r13" depart="97" />
    <vehicle id="right_97" type="v1" route="r13" depart="98" />
    <vehicle id="right_98" type="v1" route="r13" depart="101" />
    <vehicle id="right_99" type="v1" route="r13" depart="102" />
    <vehicle id="right_100" type="v1" route="r13" depart="103" />
    <vehicle id="up_101" type="v1" route="r42" depart="103" />
    <vehicle id="right_102" type="v1" route="r13" depart="104" />
    <vehicle id="right_103" type="v1" route="r13" depart="105" />
    <vehicle id="up_104" type="v1" route="r42" depart="105" />
    <vehicle id="right_105" type="v1" route="r13" depart="106" />
    <vehicle id="right_106" type="v1" route="r13" depart="107" />
    <vehicle id="right_107" type="v1" route="r13" depart="108" />
    <vehicle id="up_108" type="v1" route="r42" depart="108" />
    <vehicle id="right_109" type="v1" route="r13" depart="109" />
    <vehicle id="right_110" type="v1" route="r13" depart="110" />
    <vehicle id="up_111" type="v1" route="r42" depart="110" />
    <vehicle id="right_112" type="v1" route="r13" depart="111" />
    <vehicle id="up_113" type="v1" route="r42" depart="111" />
    <vehicle id="right_114" type="v1" route="r13" depart="112" />
    <vehicle id="up_115" type="v1" route="r42" depart="112" />
    <vehicle id="right_116" type="v1" route="r13" depart="113" />
    <vehicle id="up_117" type="v1" route="r42" depart="113" />
    <vehicle id="right_118" type="v1" route="r13" depart="114" />
    <vehicle id="up_119" type="v1" route="r42" depart="114" />
    <vehicle id="right_120" type="v1" route="r13" depart="115" />
    <vehicle id="right_121" type="v1" route="r13" depart="116" />
    <vehicle id="right_122" type="v1" route="r13" depart="117" />
    <vehicle id="right_123" type="v1" route="r13" depart="118" />
    <vehicle id="right_124" type="v1" route="r13" depart="119" />
    <vehicle id="right_125" type="v1" route="r13" depart="120" />
    <vehicle id="right_126" type="v1" route="r13" depart="121" />
    <vehicle id="up_127" type="v1" route="r42" depart="121" />
    <vehicle id="right_128" type="v1" route="r13" depart="122" />
    <vehicle id="right_129" type="v1" route="r13" depart="123" />
    <vehicle id="right_130" type="v1" route="r13" depart="124" />
    <vehicle id="up_131" type="v1" route="r42" depart="124" />
    <vehicle id="right_132" type="v1" route="r13" depart="125" />
    <vehicle id="right_133" type="v1" route="r13" depart="126" />
    <vehicle id="right_134" type="v1" route="r13" depart="127" />
    <vehicle id="up_135" type="v1" route="r42" depart="127" />
    <vehicle id="right_136" type="v1" route="r13" depart="128" />
    <vehicle id="up_137" type="v1" route="r42" depart="128" />
    <vehicle id="right_138" type="v1" route="r13" depart="129" />
    <vehicle id="up_139" type="v1" route="r42" depart="129" />
    <vehicle id="right_140" type="v1" route="r13" depart="130" />
    <vehicle id="right_141" type="v1" route="r13" depart="131" />
    <vehicle id="right_142" type="v1" route="r13" depart="132" />
    <vehicle id="right_143" type="v1" route="r13" depart="133" />
    <vehicle id="right_144" type="v1" route="r13" depart="134" />
    <vehicle id="up_145" type="v1" route="r42" depart="134" />
    <vehicle id="right_146" type="v1" route="r13" depart="135" />
    <vehicle id="up_147" type="v1" route="r42" depart="135" />
    <vehicle id="right_148" type="v1" route="r13" depart="136" />
    <vehicle id="up_149" type="v1" route="r42" depart="136" />
    <vehicle id="right_150" type="v1" route="r13" depart="137" />
    <vehicle id="right_151" type="v1" route="r13" depart="138" />
    <vehicle id="right_152" type="v1" route="r13" depart="139" />
    <vehicle id="right_153" type="v1" route="r13" depart="140" />
    <vehicle id="right_154" type="v1" route="r13" depart="141" />
    <vehicle id="right_155" type="v1" route="r13" depart="142" />
    <vehicle id="right_156" type="v1" route="r13" depart="143" />
    <vehicle id="right_157" type="v1" route="r13" depart="144" />
    <vehicle id="right_158" type="v1" route="r13" depart="145" />
    <vehicle id="right_159" type="v1" route="r13" depart="146" />
    <vehicle id="right_160" type="v1" route="r13" depart="147" />
    <vehicle id="right_161" type="v1" route="r13" depart="148" />
    <vehicle id="right_162" type="v1" route="r13" depart="149" />
    <vehicle id="right_163" type="v1" route="r13" depart="150" />
    <vehicle id="right_164" type="v1" route="r13" depart="151" />
    <vehicle id="right_165" type="v1" route="r13" depart="152" />
    <vehicle id="right_166" type="v1" route="r13" depart="153" />
    <vehicle id="right_167" type="v1" route="r13" depart="154" />
    <vehicle id="right_168" type="v1" route="r13" depart="155" />
    <vehicle id="up_169" type="v1" route="r42" depart="155" />
    <vehicle id="right_170" type="v1" route="r13" depart="156" />
    <vehicle id="up_171" type="v1" route="r42" depart="156" />
    <vehicle id="right_172" type="v1" route="r13" depart="157" />
    <vehicle id="right_173" type="v1" route="r13" depart="158" />
    <vehicle id="right_174" type="v1" route="r13" depart="159" />
    <vehicle id="up_175" type="v1" route="r42" depart="159" />
    <vehicle id="right_176" type="v1" route="r13" depart="160" />
    <vehicle id="up_177" type="v1" route="r42" depart="160" />
    <vehicle id="right_178" type="v1" route="r13" depart="161" />
    <vehicle id="right_179" type="v1" route="r13" depart="162" />
    <vehicle id="right_180" type="v1" route="r13" depart="163" />
    <vehicle id="right_181" type="v1" route="r13" depart="164" />
    <vehicle id="right_182" type="v1" route="r13" depart="165" />
    <vehicle id="right_183" type="v1" route="r13" depart="166" />
    <vehicle id="right_184" type="v1" route="r13" depart="167" />
    <vehicle id="right_185" type="v1" route="r13" depart="168" />
    <vehicle id="right_186" type="v1" route="r13" depart="169" />
    <vehicle id="right_187" type="v1" route="r13" depart="170" />
    <vehicle id="right_188" type="v1" route="r13" depart="171" />
    <vehicle id="up_189" type="v1" route="r42" depart="171" />
    <vehicle id="right_190" type="v1" route="r13" depart="172" />
    <vehicle id="right_191" type="v1" route="r13" depart="173" />
    <vehicle id="right_192" type="v1" route="r13" depart="174" />
    <vehicle id="right_193" type="v1" route="r13" depart="175" />
    <vehicle id="up_194" type="v1" route="r42" depart="175" />
    <vehicle id="right_195" type="v1" route="r13" depart="176" />
    <vehicle id="up_196" type="v1" route="r42" depart="176" />
    <vehicle id="right_197" type="v1" route="r13" depart="177" />
    <vehicle id="right_198" type="v1" route="r13" depart="178" />
    <vehicle id="right_199" type="v1" route="r13" depart="179" />
    <vehicle id="right_200" type="v1" route="r13" depart="180" />
    <vehicle id="right_201" type="v1" route="r13" depart="181" />
    <vehicle id="up_202" type="v1" route="r42" depart="181" />
    <vehicle id="right_203" type="v1" route="r13" depart="182" />
    <vehicle id="right_204" type="v1" route="r13" depart="183" />
    <vehicle id="right_205" type="v1" route="r13" depart="184" />
    <vehicle id="up_206" type="v1" route="r42" depart="184" />
    <vehicle id="right_207" type="v1" route="r13" depart="185" />
    <vehicle id="right_208" type="v1" route="r13" depart="186" />
    <vehicle id="right_209" type="v1" route="r13" depart="187" />
    <vehicle id="right_210" type="v1" route="r13" depart="188" />
    <vehicle id="up_211" type="v1" route="r42" depart="189" />
    <vehicle id="right_212" type="v1" route="r13" depart="191" />
    <vehicle id="right_213" type="v1" route="r13" depart="194" />
    <vehicle id="right_214" type="v1" route="r13" depart="195" />
    <vehicle id="right_215" type="v1" route="r13" depart="196" />
    <vehicle id="up_216" type="v1" route="r42" depart="196" />
    <vehicle id="right_217" type="v1" route="r13" depart="197" />
    <vehicle id="up_218" type="v1" route="r42" depart="197" />
    <vehicle id="right_219" type="v1" route="r13" depart="198" />
    <vehicle id="up_220" type="v1" route="r42" depart="198" />
    <vehicle id="up_221" type="v1" route="r42" depart="199" />
</routes>
