<routes>
        <vType id="v1" accel="2.6" decel="4.5" sigma="0.5" length="5" minGap="2.5" maxSpeed="55" guiShape="passenger"/>

        <route id="r13" edges="e10 e03" />
        <route id="r42" edges="e40 e02" />
    <vehicle id="up_0" type="v1" route="r42" depart="1" />
    <vehicle id="up_1" type="v1" route="r42" depart="2" />
    <vehicle id="right_2" type="v1" route="r13" depart="10" />
    <vehicle id="right_3" type="v1" route="r13" depart="11" />
    <vehicle id="right_4" type="v1" route="r13" depart="12" />
    <vehicle id="right_5" type="v1" route="r13" depart="14" />
    <vehicle id="right_6" type="v1" route="r13" depart="15" />
    <vehicle id="right_7" type="v1" route="r13" depart="22" />
    <vehicle id="right_8" type="v1" route="r13" depart="23" />
    <vehicle id="right_9" type="v1" route="r13" depart="32" />
    <vehicle id="right_10" type="v1" route="r13" depart="34" />
    <vehicle id="up_11" type="v1" route="r42" depart="34" />
    <vehicle id="right_12" type="v1" route="r13" depart="36" />
    <vehicle id="right_13" type="v1" route="r13" depart="40" />
    <vehicle id="right_14" type="v1" route="r13" depart="48" />
    <vehicle id="up_15" type="v1" route="r42" depart="48" />
    <vehicle id="up_16" type="v1" route="r42" depart="49" />
    <vehicle id="right_17" type="v1" route="r13" depart="51" />
    <vehicle id="right_18" type="v1" route="r13" depart="54" />
    <vehicle id="right_19" type="v1" route="r13" depart="55" />
    <vehicle id="right_20" type="v1" route="r13" depart="56" />
    <vehicle id="up_21" type="v1" route="r42" depart="59" />
    <vehicle id="right_22" type="v1" route="r13" depart="61" />
    <vehicle id="up_23" type="v1" route="r42" depart="63" />
    <vehicle id="right_24" type="v1" route="r13" depart="70" />
    <vehicle id="up_25" type="v1" route="r42" depart="71" />
    <vehicle id="up_26" type="v1" route="r42" depart="75" />
    <vehicle id="right_27" type="v1" route="r13" depart="79" />
    <vehicle id="up_28" type="v1" route="r42" depart="81" />
    <vehicle id="right_29" type="v1" route="r13" depart="82" />
    <vehicle id="up_30" type="v1" route="r42" depart="82" />
    <vehicle id="up_31" type="v1" route="r42" depart="84" />
    <vehicle id="right_32" type="v1" route="r13" depart="92" />
    <vehicle id="up_33" type="v1" route="r42" depart="92" />
    <vehicle id="up_34" type="v1" route="r42" depart="97" />
    <vehicle id="up_35" type="v1" route="r42" depart="98" />
    <vehicle id="right_36" type="v1" route="r13" depart="101" />
    <vehicle id="right_37" type="v1" route="r13" depart="104" />
    <vehicle id="right_38" type="v1" route="r13" depart="105" />
    <vehicle id="right_39" type="v1" route="r13" depart="106" />
    <vehicle id="up_40" type="v1" route="r42" depart="106" />
    <vehicle id="right_41" type="v1" route="r13" depart="107" />
    <vehicle id="up_42" type="v1" route="r42" depart="107" />
    <vehicle id="up_43" type="v1" route="r42" depart="110" />
    <vehicle id="up_44" type="v1" route="r42" depart="114" />
    <vehicle id="right_45" type="v1" route="r13" depart="115" />
    <vehicle id="up_46" type="v1" route="r42" depart="116" />
    <vehicle id="right_47" type="v1" route="r13" depart="118" />
    <vehicle id="right_48" type="v1" route="r13" depart="119" />
    <vehicle id="right_49" type="v1" route="r13" depart="121" />
    <vehicle id="right_50" type="v1" route="r13" depart="124" />
    <vehicle id="right_51" type="v1" route="r13" depart="125" />
    <vehicle id="right_52" type="v1" route="r13" depart="127" />
    <vehicle id="up_53" type="v1" route="r42" depart="129" />
    <vehicle id="right_54" type="v1" route="r13" depart="130" />
    <vehicle id="up_55" type="v1" route="r42" depart="132" />
    <vehicle id="right_56" type="v1" route="r13" depart="133" />
    <vehicle id="right_57" type="v1" route="r13" depart="134" />
    <vehicle id="up_58" type="v1" route="r42" depart="135" />
    <vehicle id="up_59" type="v1" route="r42" depart="138" />
    <vehicle id="up_60" type="v1" route="r42" depart="140" />
    <vehicle id="up_61" type="v1" route="r42" depart="143" />
    <vehicle id="right_62" type="v1" route="r13" depart="150" />
    <vehicle id="up_63" type="v1" route="r42" depart="156" />
    <vehicle id="right_64" type="v1" route="r13" depart="159" />
    <vehicle id="up_65" type="v1" route="r42" depart="160" />
    <vehicle id="right_66" type="v1" route="r13" depart="161" />
    <vehicle id="up_67" type="v1" route="r42" depart="161" />
    <vehicle id="up_68" type="v1" route="r42" depart="162" />
    <vehicle id="up_69" type="v1" route="r42" depart="165" />
    <vehicle id="up_70" type="v1" route="r42" depart="167" />
    <vehicle id="right_71" type="v1" route="r13" depart="168" />
    <vehicle id="right_72" type="v1" route="r13" depart="169" />
    <vehicle id="up_73" type="v1" route="r42" depart="169" />
    <vehicle id="right_74" type="v1" route="r13" depart="170" />
    <vehicle id="up_75" type="v1" route="r42" depart="170" />
    <vehicle id="right_76" type="v1" route="r13" depart="172" />
    <vehicle id="right_77" type="v1" route="r13" depart="175" />
    <vehicle id="right_78" type="v1" route="r13" depart="176" />
    <vehicle id="up_79" type="v1" route="r42" depart="177" />
    <vehicle id="up_80" type="v1" route="r42" depart="178" />
    <vehicle id="right_81" type="v1" route="r13" depart="179" />
    <vehicle id="up_82" type="v1" route="r42" depart="180" />
    <vehicle id="right_83" type="v1" route="r13" depart="185" />
    <vehicle id="right_84" type="v1" route="r13" depart="186" />
    <vehicle id="right_85" type="v1" route="r13" depart="192" />
    <vehicle id="up_86" type="v1" route="r42" depart="193" />
    <vehicle id="right_87" type="v1" route="r13" depart="194" />
    <vehicle id="right_88" type="v1" route="r13" depart="197" />
    <vehicle id="up_89" type="v1" route="r42" depart="197" />
    <vehicle id="up_90" type="v1" route="r42" depart="204" />
    <vehicle id="up_91" type="v1" route="r42" depart="207" />
    <vehicle id="right_92" type="v1" route="r13" depart="211" />
    <vehicle id="up_93" type="v1" route="r42" depart="213" />
    <vehicle id="right_94" type="v1" route="r13" depart="214" />
    <vehicle id="up_95" type="v1" route="r42" depart="215" />
    <vehicle id="right_96" type="v1" route="r13" depart="219" />
    <vehicle id="right_97" type="v1" route="r13" depart="221" />
    <vehicle id="up_98" type="v1" route="r42" depart="224" />
    <vehicle id="up_99" type="v1" route="r42" depart="225" />
    <vehicle id="up_100" type="v1" route="r42" depart="228" />
    <vehicle id="right_101" type="v1" route="r13" depart="230" />
    <vehicle id="right_102" type="v1" route="r13" depart="231" />
    <vehicle id="right_103" type="v1" route="r13" depart="232" />
    <vehicle id="up_104" type="v1" route="r42" depart="233" />
    <vehicle id="right_105" type="v1" route="r13" depart="235" />
    <vehicle id="right_106" type="v1" route="r13" depart="236" />
    <vehicle id="up_107" type="v1" route="r42" depart="236" />
    <vehicle id="right_108" type="v1" route="r13" depart="237" />
    <vehicle id="right_109" type="v1" route="r13" depart="238" />
    <vehicle id="right_110" type="v1" route="r13" depart="239" />
    <vehicle id="right_111" type="v1" route="r13" depart="240" />
    <vehicle id="right_112" type="v1" route="r13" depart="241" />
    <vehicle id="right_113" type="v1" route="r13" depart="246" />
    <vehicle id="right_114" type="v1" route="r13" depart="247" />
    <vehicle id="right_115" type="v1" route="r13" depart="248" />
    <vehicle id="right_116" type="v1" route="r13" depart="249" />
    <vehicle id="right_117" type="v1" route="r13" depart="250" />
    <vehicle id="right_118" type="v1" route="r13" depart="251" />
    <vehicle id="right_119" type="v1" route="r13" depart="252" />
    <vehicle id="up_120" type="v1" route="r42" depart="253" />
    <vehicle id="right_121" type="v1" route="r13" depart="255" />
    <vehicle id="right_122" type="v1" route="r13" depart="261" />
    <vehicle id="right_123" type="v1" route="r13" depart="262" />
    <vehicle id="right_124" type="v1" route="r13" depart="263" />
    <vehicle id="up_125" type="v1" route="r42" depart="266" />
    <vehicle id="up_126" type="v1" route="r42" depart="267" />
    <vehicle id="right_127" type="v1" route="r13" depart="268" />
    <vehicle id="up_128" type="v1" route="r42" depart="268" />
    <vehicle id="up_129" type="v1" route="r42" depart="269" />
    <vehicle id="right_130" type="v1" route="r13" depart="270" />
    <vehicle id="right_131" type="v1" route="r13" depart="274" />
    <vehicle id="right_132" type="v1" route="r13" depart="276" />
    <vehicle id="up_133" type="v1" route="r42" depart="276" />
    <vehicle id="right_134" type="v1" route="r13" depart="277" />
    <vehicle id="up_135" type="v1" route="r42" depart="277" />
    <vehicle id="right_136" type="v1" route="r13" depart="278" />
    <vehicle id="up_137" type="v1" route="r42" depart="278" />
    <vehicle id="up_138" type="v1" route="r42" depart="279" />
    <vehicle id="right_139" type="v1" route="r13" depart="281" />
    <vehicle id="right_140" type="v1" route="r13" depart="284" />
    <vehicle id="right_141" type="v1" route="r13" depart="285" />
    <vehicle id="right_142" type="v1" route="r13" depart="286" />
    <vehicle id="right_143" type="v1" route="r13" depart="289" />
    <vehicle id="right_144" type="v1" route="r13" depart="290" />
    <vehicle id="up_145" type="v1" route="r42" depart="290" />
    <vehicle id="right_146" type="v1" route="r13" depart="291" />
    <vehicle id="up_147" type="v1" route="r42" depart="291" />
    <vehicle id="up_148" type="v1" route="r42" depart="292" />
    <vehicle id="right_149" type="v1" route="r13" depart="295" />
    <vehicle id="up_150" type="v1" route="r42" depart="295" />
    <vehicle id="up_151" type="v1" route="r42" depart="304" />
    <vehicle id="up_152" type="v1" route="r42" depart="306" />
    <vehicle id="right_153" type="v1" route="r13" depart="308" />
    <vehicle id="right_154" type="v1" route="r13" depart="309" />
    <vehicle id="up_155" type="v1" route="r42" depart="309" />
    <vehicle id="right_156" type="v1" route="r13" depart="310" />
    <vehicle id="right_157" type="v1" route="r13" depart="315" />
    <vehicle id="right_158" type="v1" route="r13" depart="316" />
    <vehicle id="right_159" type="v1" route="r13" depart="317" />
    <vehicle id="up_160" type="v1" route="r42" depart="319" />
    <vehicle id="right_161" type="v1" route="r13" depart="320" />
    <vehicle id="up_162" type="v1" route="r42" depart="320" />
    <vehicle id="right_163" type="v1" route="r13" depart="324" />
    <vehicle id="right_164" type="v1" route="r13" depart="327" />
    <vehicle id="right_165" type="v1" route="r13" depart="328" />
    <vehicle id="up_166" type="v1" route="r42" depart="332" />
    <vehicle id="right_167" type="v1" route="r13" depart="334" />
    <vehicle id="right_168" type="v1" route="r13" depart="335" />
    <vehicle id="up_169" type="v1" route="r42" depart="335" />
    <vehicle id="right_170" type="v1" route="r13" depart="336" />
    <vehicle id="up_171" type="v1" route="r42" depart="336" />
    <vehicle id="up_172" type="v1" route="r42" depart="340" />
    <vehicle id="right_173" type="v1" route="r13" depart="341" />
    <vehicle id="up_174" type="v1" route="r42" depart="345" />
    <vehicle id="right_175" type="v1" route="r13" depart="346" />
    <vehicle id="right_176" type="v1" route="r13" depart="347" />
    <vehicle id="right_177" type="v1" route="r13" depart="348" />
    <vehicle id="right_178" type="v1" route="r13" depart="354" />
    <vehicle id="right_179" type="v1" route="r13" depart="359" />
    <vehicle id="right_180" type="v1" route="r13" depart="360" />
    <vehicle id="right_181" type="v1" route="r13" depart="363" />
    <vehicle id="right_182" type="v1" route="r13" depart="364" />
    <vehicle id="up_183" type="v1" route="r42" depart="364" />
    <vehicle id="right_184" type="v1" route="r13" depart="365" />
    <vehicle id="up_185" type="v1" route="r42" depart="365" />
    <vehicle id="right_186" type="v1" route="r13" depart="366" />
    <vehicle id="up_187" type="v1" route="r42" depart="366" />
    <vehicle id="right_188" type="v1" route="r13" depart="368" />
    <vehicle id="right_189" type="v1" route="r13" depart="369" />
    <vehicle id="right_190" type="v1" route="r13" depart="371" />
    <vehicle id="right_191" type="v1" route="r13" depart="377" />
    <vehicle id="right_192" type="v1" route="r13" depart="380" />
    <vehicle id="right_193" type="v1" route="r13" depart="382" />
    <vehicle id="up_194" type="v1" route="r42" depart="383" />
    <vehicle id="up_195" type="v1" route="r42" depart="384" />
    <vehicle id="right_196" type="v1" route="r13" depart="387" />
    <vehicle id="right_197" type="v1" route="r13" depart="390" />
    <vehicle id="right_198" type="v1" route="r13" depart="395" />
    <vehicle id="up_199" type="v1" route="r42" depart="398" />
    <vehicle id="up_200" type="v1" route="r42" depart="399" />
    <vehicle id="right_201" type="v1" route="r13" depart="400" />
    <vehicle id="up_202" type="v1" route="r42" depart="400" />
    <vehicle id="right_203" type="v1" route="r13" depart="401" />
    <vehicle id="up_204" type="v1" route="r42" depart="402" />
    <vehicle id="right_205" type="v1" route="r13" depart="409" />
    <vehicle id="right_206" type="v1" route="r13" depart="411" />
    <vehicle id="right_207" type="v1" route="r13" depart="414" />
    <vehicle id="up_208" type="v1" route="r42" depart="414" />
    <vehicle id="up_209" type="v1" route="r42" depart="416" />
    <vehicle id="right_210" type="v1" route="r13" depart="418" />
    <vehicle id="right_211" type="v1" route="r13" depart="426" />
    <vehicle id="right_212" type="v1" route="r13" depart="430" />
    <vehicle id="up_213" type="v1" route="r42" depart="434" />
    <vehicle id="right_214" type="v1" route="r13" depart="437" />
    <vehicle id="right_215" type="v1" route="r13" depart="440" />
    <vehicle id="right_216" type="v1" route="r13" depart="441" />
    <vehicle id="right_217" type="v1" route="r13" depart="442" />
    <vehicle id="up_218" type="v1" route="r42" depart="442" />
    <vehicle id="right_219" type="v1" route="r13" depart="443" />
    <vehicle id="up_220" type="v1" route="r42" depart="443" />
    <vehicle id="up_221" type="v1" route="r42" depart="444" />
    <vehicle id="up_222" type="v1" route="r42" depart="445" />
    <vehicle id="up_223" type="v1" route="r42" depart="446" />
    <vehicle id="up_224" type="v1" route="r42" depart="447" />
    <vehicle id="up_225" type="v1" route="r42" depart="449" />
    <vehicle id="right_226" type="v1" route="r13" depart="451" />
    <vehicle id="up_227" type="v1" route="r42" depart="451" />
    <vehicle id="right_228" type="v1" route="r13" depart="452" />
    <vehicle id="right_229" type="v1" route="r13" depart="453" />
    <vehicle id="right_230" type="v1" route="r13" depart="454" />
    <vehicle id="up_231" type="v1" route="r42" depart="455" />
    <vehicle id="up_232" type="v1" route="r42" depart="456" />
    <vehicle id="right_233" type="v1" route="r13" depart="460" />
    <vehicle id="up_234" type="v1" route="r42" depart="460" />
    <vehicle id="right_235" type="v1" route="r13" depart="466" />
    <vehicle id="right_236" type="v1" route="r13" depart="467" />
    <vehicle id="right_237" type="v1" route="r13" depart="468" />
    <vehicle id="right_238" type="v1" route="r13" depart="476" />
    <vehicle id="up_239" type="v1" route="r42" depart="476" />
    <vehicle id="up_240" type="v1" route="r42" depart="478" />
    <vehicle id="right_241" type="v1" route="r13" depart="479" />
    <vehicle id="up_242" type="v1" route="r42" depart="479" />
    <vehicle id="right_243" type="v1" route="r13" depart="480" />
    <vehicle id="up_244" type="v1" route="r42" depart="480" />
    <vehicle id="right_245" type="v1" route="r13" depart="481" />
    <vehicle id="up_246" type="v1" route="r42" depart="481" />
    <vehicle id="up_247" type="v1" route="r42" depart="489" />
    <vehicle id="up_248" type="v1" route="r42" depart="490" />
    <vehicle id="up_249" type="v1" route="r42" depart="493" />
    <vehicle id="right_250" type="v1" route="r13" depart="495" />
    <vehicle id="right_251" type="v1" route="r13" depart="497" />
    <vehicle id="right_252" type="v1" route="r13" depart="498" />
    <vehicle id="right_253" type="v1" route="r13" depart="499" />
    <vehicle id="right_254" type="v1" route="r13" depart="500" />
    <vehicle id="up_255" type="v1" route="r42" depart="501" />
    <vehicle id="up_256" type="v1" route="r42" depart="505" />
    <vehicle id="right_257" type="v1" route="r13" depart="508" />
    <vehicle id="up_258" type="v1" route="r42" depart="508" />
    <vehicle id="up_259" type="v1" route="r42" depart="509" />
    <vehicle id="right_260" type="v1" route="r13" depart="511" />
    <vehicle id="up_261" type="v1" route="r42" depart="514" />
    <vehicle id="right_262" type="v1" route="r13" depart="516" />
    <vehicle id="right_263" type="v1" route="r13" depart="517" />
    <vehicle id="right_264" type="v1" route="r13" depart="518" />
    <vehicle id="right_265" type="v1" route="r13" depart="519" />
    <vehicle id="right_266" type="v1" route="r13" depart="520" />
    <vehicle id="up_267" type="v1" route="r42" depart="520" />
    <vehicle id="right_268" type="v1" route="r13" depart="521" />
    <vehicle id="right_269" type="v1" route="r13" depart="523" />
    <vehicle id="up_270" type="v1" route="r42" depart="523" />
    <vehicle id="right_271" type="v1" route="r13" depart="524" />
    <vehicle id="up_272" type="v1" route="r42" depart="526" />
    <vehicle id="right_273" type="v1" route="r13" depart="527" />
    <vehicle id="right_274" type="v1" route="r13" depart="528" />
    <vehicle id="up_275" type="v1" route="r42" depart="531" />
    <vehicle id="right_276" type="v1" route="r13" depart="535" />
    <vehicle id="right_277" type="v1" route="r13" depart="536" />
    <vehicle id="up_278" type="v1" route="r42" depart="536" />
    <vehicle id="right_279" type="v1" route="r13" depart="537" />
    <vehicle id="up_280" type="v1" route="r42" depart="541" />
    <vehicle id="up_281" type="v1" route="r42" depart="543" />
    <vehicle id="right_282" type="v1" route="r13" depart="545" />
    <vehicle id="up_283" type="v1" route="r42" depart="546" />
    <vehicle id="right_284" type="v1" route="r13" depart="547" />
    <vehicle id="up_285" type="v1" route="r42" depart="547" />
    <vehicle id="right_286" type="v1" route="r13" depart="549" />
    <vehicle id="right_287" type="v1" route="r13" depart="551" />
    <vehicle id="right_288" type="v1" route="r13" depart="556" />
    <vehicle id="right_289" type="v1" route="r13" depart="557" />
    <vehicle id="up_290" type="v1" route="r42" depart="559" />
    <vehicle id="right_291" type="v1" route="r13" depart="563" />
    <vehicle id="right_292" type="v1" route="r13" depart="564" />
    <vehicle id="right_293" type="v1" route="r13" depart="566" />
    <vehicle id="up_294" type="v1" route="r42" depart="567" />
    <vehicle id="right_295" type="v1" route="r13" depart="570" />
    <vehicle id="up_296" type="v1" route="r42" depart="571" />
    <vehicle id="right_297" type="v1" route="r13" depart="573" />
    <vehicle id="up_298" type="v1" route="r42" depart="573" />
    <vehicle id="right_299" type="v1" route="r13" depart="575" />
    <vehicle id="up_300" type="v1" route="r42" depart="575" />
    <vehicle id="up_301" type="v1" route="r42" depart="577" />
    <vehicle id="right_302" type="v1" route="r13" depart="580" />
    <vehicle id="right_303" type="v1" route="r13" depart="582" />
    <vehicle id="right_304" type="v1" route="r13" depart="583" />
    <vehicle id="right_305" type="v1" route="r13" depart="585" />
    <vehicle id="right_306" type="v1" route="r13" depart="586" />
    <vehicle id="right_307" type="v1" route="r13" depart="589" />
    <vehicle id="right_308" type="v1" route="r13" depart="590" />
    <vehicle id="right_309" type="v1" route="r13" depart="592" />
    <vehicle id="right_310" type="v1" route="r13" depart="593" />
    <vehicle id="up_311" type="v1" route="r42" depart="597" />
    <vehicle id="right_312" type="v1" route="r13" depart="598" />
    <vehicle id="up_313" type="v1" route="r42" depart="598" />
    <vehicle id="right_314" type="v1" route="r13" depart="601" />
    <vehicle id="right_315" type="v1" route="r13" depart="602" />
    <vehicle id="right_316" type="v1" route="r13" depart="603" />
    <vehicle id="right_317" type="v1" route="r13" depart="604" />
    <vehicle id="up_318" type="v1" route="r42" depart="604" />
    <vehicle id="up_319" type="v1" route="r42" depart="605" />
    <vehicle id="up_320" type="v1" route="r42" depart="606" />
    <vehicle id="right_321" type="v1" route="r13" depart="607" />
    <vehicle id="up_322" type="v1" route="r42" depart="608" />
    <vehicle id="up_323" type="v1" route="r42" depart="609" />
    <vehicle id="right_324" type="v1" route="r13" depart="612" />
    <vehicle id="right_325" type="v1" route="r13" depart="614" />
    <vehicle id="right_326" type="v1" route="r13" depart="615" />
    <vehicle id="right_327" type="v1" route="r13" depart="616" />
    <vehicle id="right_328" type="v1" route="r13" depart="617" />
    <vehicle id="right_329" type="v1" route="r13" depart="618" />
    <vehicle id="right_330" type="v1" route="r13" depart="619" />
    <vehicle id="right_331" type="v1" route="r13" depart="620" />
    <vehicle id="right_332" type="v1" route="r13" depart="621" />
    <vehicle id="right_333" type="v1" route="r13" depart="622" />
    <vehicle id="up_334" type="v1" route="r42" depart="623" />
    <vehicle id="right_335" type="v1" route="r13" depart="624" />
    <vehicle id="up_336" type="v1" route="r42" depart="626" />
    <vehicle id="right_337" type="v1" route="r13" depart="627" />
    <vehicle id="right_338" type="v1" route="r13" depart="628" />
    <vehicle id="right_339" type="v1" route="r13" depart="629" />
    <vehicle id="up_340" type="v1" route="r42" depart="630" />
    <vehicle id="up_341" type="v1" route="r42" depart="631" />
    <vehicle id="up_342" type="v1" route="r42" depart="632" />
    <vehicle id="up_343" type="v1" route="r42" depart="633" />
    <vehicle id="right_344" type="v1" route="r13" depart="635" />
    <vehicle id="right_345" type="v1" route="r13" depart="637" />
    <vehicle id="up_346" type="v1" route="r42" depart="640" />
    <vehicle id="right_347" type="v1" route="r13" depart="645" />
    <vehicle id="up_348" type="v1" route="r42" depart="645" />
    <vehicle id="right_349" type="v1" route="r13" depart="646" />
    <vehicle id="up_350" type="v1" route="r42" depart="648" />
    <vehicle id="up_351" type="v1" route="r42" depart="649" />
    <vehicle id="right_352" type="v1" route="r13" depart="650" />
    <vehicle id="right_353" type="v1" route="r13" depart="651" />
    <vehicle id="right_354" type="v1" route="r13" depart="652" />
    <vehicle id="right_355" type="v1" route="r13" depart="653" />
    <vehicle id="right_356" type="v1" route="r13" depart="655" />
    <vehicle id="right_357" type="v1" route="r13" depart="656" />
    <vehicle id="up_358" type="v1" route="r42" depart="657" />
    <vehicle id="right_359" type="v1" route="r13" depart="663" />
    <vehicle id="right_360" type="v1" route="r13" depart="665" />
    <vehicle id="up_361" type="v1" route="r42" depart="671" />
    <vehicle id="right_362" type="v1" route="r13" depart="672" />
    <vehicle id="right_363" type="v1" route="r13" depart="674" />
    <vehicle id="right_364" type="v1" route="r13" depart="675" />
    <vehicle id="up_365" type="v1" route="r42" depart="676" />
    <vehicle id="right_366" type="v1" route="r13" depart="684" />
    <vehicle id="right_367" type="v1" route="r13" depart="686" />
    <vehicle id="right_368" type="v1" route="r13" depart="687" />
    <vehicle id="right_369" type="v1" route="r13" depart="688" />
    <vehicle id="up_370" type="v1" route="r42" depart="689" />
    <vehicle id="right_371" type="v1" route="r13" depart="690" />
    <vehicle id="right_372" type="v1" route="r13" depart="692" />
    <vehicle id="right_373" type="v1" route="r13" depart="693" />
    <vehicle id="right_374" type="v1" route="r13" depart="696" />
    <vehicle id="up_375" type="v1" route="r42" depart="699" />
</routes>
