<?xml version="1.0" encoding="UTF-8"?>

<!-- generated on 2022-05-16 20:57:14 by Eclipse SUMO netedit Version 1.10.0
<configuration xmlns:xsi="http://www.w3.org/2001/XMLSchema-instance" xsi:noNamespaceSchemaLocation="http://sumo.dlr.de/xsd/netconvertConfiguration.xsd">

    <input>
        <sumo-net-file value="/Users/YingqingChen/yqchenn@bu.edu%20-%20Google%20Drive/我的云端硬盘/Simulation/intersection/tlc_single_straight.net.xml"/>
    </input>

    <output>
        <output-file value="/Users/YingqingChen/yqchenn@bu.edu%20-%20Google%20Drive/我的云端硬盘/Simulation/intersection/tlc_single_straight.net.xml"/>
    </output>

    <processing>
        <geometry.min-radius.fix.railways value="false"/>
        <geometry.max-grade.fix value="false"/>
        <offset.disable-normalization value="true"/>
        <lefthand value="false"/>
    </processing>

    <junctions>
        <no-turnarounds value="true"/>
        <junctions.corner-detail value="5"/>
        <junctions.limit-turn-speed value="5.5"/>
        <rectangular-lane-cut value="false"/>
    </junctions>

    <pedestrian>
        <walkingareas value="false"/>
    </pedestrian>

    <netedit>
        <additional-files value="/Users/YingqingChen/yqchenn@bu.edu%20-%20Google%20Drive/我的云端硬盘/Simulation/intersection/tlc_single_straight.add1.xml"/>
    </netedit>

    <report>
        <aggregate-warnings value="5"/>
    </report>

</configuration>
-->

<additional xmlns:xsi="http://www.w3.org/2001/XMLSchema-instance" xsi:noNamespaceSchemaLocation="http://sumo.dlr.de/xsd/additional_file.xsd">
    <e2Detector id="det_13" lane="e10_0" pos="10" length="290.00" freq="300.00" file="det_13.xml" timeThreshold="0.4" jamThreshold="14"/>
    <e2Detector id="det_42" lane="e40_0" pos="10" length="290.00" freq="300.00" file="det_24.xml" timeThreshold="0.4" jamThreshold="14"/>
    <e1Detector id="det_13_1" lane="e10_0" pos="10" freq="300.00" file="e1Detector_13_1.xml"/>
    <e1Detector id="det_13_0" lane="e10_0" pos="293" freq="300.00" file="e1Detector_13_0.xml"/>
    <e1Detector id="det_42_0" lane="e40_0" pos="293" freq="300.00" file="e1Detector_42_0.xml"/>
    <e1Detector id="det_42_4" lane="e40_0" pos="10" freq="300.00" file="e1Detector_42_4.xml"/>
</additional>
