<routes>
        <vType id="v1" accel="2.6" decel="4.5" sigma="0.5" length="5" minGap="2.5" maxSpeed="55" guiShape="passenger"/>

        <route id="r13" edges="e10 e03" />
        <route id="r42" edges="e40 e02" />
    <vehicle id="up_0" type="v1" route="r42" depart="7" />
    <vehicle id="right_1" type="v1" route="r13" depart="8" />
    <vehicle id="right_2" type="v1" route="r13" depart="15" />
    <vehicle id="right_3" type="v1" route="r13" depart="16" />
    <vehicle id="up_4" type="v1" route="r42" depart="16" />
    <vehicle id="right_5" type="v1" route="r13" depart="19" />
    <vehicle id="right_6" type="v1" route="r13" depart="25" />
    <vehicle id="right_7" type="v1" route="r13" depart="27" />
    <vehicle id="right_8" type="v1" route="r13" depart="28" />
    <vehicle id="right_9" type="v1" route="r13" depart="29" />
    <vehicle id="up_10" type="v1" route="r42" depart="30" />
    <vehicle id="up_11" type="v1" route="r42" depart="31" />
    <vehicle id="up_12" type="v1" route="r42" depart="33" />
    <vehicle id="right_13" type="v1" route="r13" depart="45" />
    <vehicle id="right_14" type="v1" route="r13" depart="46" />
    <vehicle id="right_15" type="v1" route="r13" depart="47" />
    <vehicle id="right_16" type="v1" route="r13" depart="48" />
    <vehicle id="up_17" type="v1" route="r42" depart="51" />
    <vehicle id="up_18" type="v1" route="r42" depart="54" />
    <vehicle id="right_19" type="v1" route="r13" depart="56" />
    <vehicle id="up_20" type="v1" route="r42" depart="57" />
    <vehicle id="right_21" type="v1" route="r13" depart="58" />
    <vehicle id="right_22" type="v1" route="r13" depart="61" />
    <vehicle id="right_23" type="v1" route="r13" depart="62" />
    <vehicle id="right_24" type="v1" route="r13" depart="63" />
    <vehicle id="right_25" type="v1" route="r13" depart="64" />
    <vehicle id="right_26" type="v1" route="r13" depart="65" />
    <vehicle id="right_27" type="v1" route="r13" depart="66" />
    <vehicle id="up_28" type="v1" route="r42" depart="67" />
    <vehicle id="right_29" type="v1" route="r13" depart="68" />
    <vehicle id="up_30" type="v1" route="r42" depart="69" />
    <vehicle id="up_31" type="v1" route="r42" depart="70" />
    <vehicle id="right_32" type="v1" route="r13" depart="71" />
    <vehicle id="up_33" type="v1" route="r42" depart="71" />
    <vehicle id="right_34" type="v1" route="r13" depart="72" />
    <vehicle id="right_35" type="v1" route="r13" depart="77" />
    <vehicle id="right_36" type="v1" route="r13" depart="78" />
    <vehicle id="up_37" type="v1" route="r42" depart="78" />
    <vehicle id="right_38" type="v1" route="r13" depart="79" />
    <vehicle id="up_39" type="v1" route="r42" depart="79" />
    <vehicle id="up_40" type="v1" route="r42" depart="80" />
    <vehicle id="up_41" type="v1" route="r42" depart="81" />
    <vehicle id="right_42" type="v1" route="r13" depart="82" />
    <vehicle id="right_43" type="v1" route="r13" depart="85" />
    <vehicle id="right_44" type="v1" route="r13" depart="87" />
    <vehicle id="up_45" type="v1" route="r42" depart="87" />
    <vehicle id="right_46" type="v1" route="r13" depart="88" />
    <vehicle id="right_47" type="v1" route="r13" depart="89" />
    <vehicle id="right_48" type="v1" route="r13" depart="91" />
    <vehicle id="right_49" type="v1" route="r13" depart="92" />
    <vehicle id="up_50" type="v1" route="r42" depart="93" />
    <vehicle id="right_51" type="v1" route="r13" depart="100" />
    <vehicle id="right_52" type="v1" route="r13" depart="103" />
    <vehicle id="up_53" type="v1" route="r42" depart="105" />
    <vehicle id="up_54" type="v1" route="r42" depart="111" />
    <vehicle id="up_55" type="v1" route="r42" depart="113" />
    <vehicle id="up_56" type="v1" route="r42" depart="114" />
    <vehicle id="right_57" type="v1" route="r13" depart="120" />
    <vehicle id="up_58" type="v1" route="r42" depart="120" />
    <vehicle id="right_59" type="v1" route="r13" depart="122" />
    <vehicle id="up_60" type="v1" route="r42" depart="123" />
    <vehicle id="up_61" type="v1" route="r42" depart="134" />
    <vehicle id="up_62" type="v1" route="r42" depart="135" />
    <vehicle id="right_63" type="v1" route="r13" depart="137" />
    <vehicle id="right_64" type="v1" route="r13" depart="138" />
    <vehicle id="right_65" type="v1" route="r13" depart="140" />
    <vehicle id="right_66" type="v1" route="r13" depart="141" />
    <vehicle id="right_67" type="v1" route="r13" depart="145" />
    <vehicle id="up_68" type="v1" route="r42" depart="148" />
    <vehicle id="up_69" type="v1" route="r42" depart="152" />
    <vehicle id="right_70" type="v1" route="r13" depart="154" />
    <vehicle id="right_71" type="v1" route="r13" depart="155" />
    <vehicle id="right_72" type="v1" route="r13" depart="158" />
    <vehicle id="right_73" type="v1" route="r13" depart="159" />
    <vehicle id="right_74" type="v1" route="r13" depart="160" />
    <vehicle id="right_75" type="v1" route="r13" depart="161" />
    <vehicle id="up_76" type="v1" route="r42" depart="161" />
    <vehicle id="right_77" type="v1" route="r13" depart="162" />
    <vehicle id="right_78" type="v1" route="r13" depart="163" />
    <vehicle id="right_79" type="v1" route="r13" depart="164" />
    <vehicle id="right_80" type="v1" route="r13" depart="165" />
    <vehicle id="right_81" type="v1" route="r13" depart="166" />
    <vehicle id="right_82" type="v1" route="r13" depart="167" />
    <vehicle id="right_83" type="v1" route="r13" depart="168" />
    <vehicle id="right_84" type="v1" route="r13" depart="169" />
    <vehicle id="up_85" type="v1" route="r42" depart="169" />
    <vehicle id="right_86" type="v1" route="r13" depart="170" />
    <vehicle id="right_87" type="v1" route="r13" depart="171" />
    <vehicle id="right_88" type="v1" route="r13" depart="172" />
    <vehicle id="right_89" type="v1" route="r13" depart="173" />
    <vehicle id="up_90" type="v1" route="r42" depart="173" />
    <vehicle id="right_91" type="v1" route="r13" depart="174" />
    <vehicle id="up_92" type="v1" route="r42" depart="174" />
    <vehicle id="right_93" type="v1" route="r13" depart="175" />
    <vehicle id="up_94" type="v1" route="r42" depart="175" />
    <vehicle id="right_95" type="v1" route="r13" depart="176" />
    <vehicle id="right_96" type="v1" route="r13" depart="177" />
    <vehicle id="right_97" type="v1" route="r13" depart="178" />
    <vehicle id="up_98" type="v1" route="r42" depart="178" />
    <vehicle id="right_99" type="v1" route="r13" depart="179" />
    <vehicle id="right_100" type="v1" route="r13" depart="180" />
    <vehicle id="up_101" type="v1" route="r42" depart="180" />
    <vehicle id="up_102" type="v1" route="r42" depart="186" />
    <vehicle id="right_103" type="v1" route="r13" depart="187" />
    <vehicle id="right_104" type="v1" route="r13" depart="188" />
    <vehicle id="right_105" type="v1" route="r13" depart="189" />
    <vehicle id="right_106" type="v1" route="r13" depart="190" />
    <vehicle id="up_107" type="v1" route="r42" depart="190" />
    <vehicle id="right_108" type="v1" route="r13" depart="192" />
    <vehicle id="right_109" type="v1" route="r13" depart="199" />
    <vehicle id="right_110" type="v1" route="r13" depart="200" />
    <vehicle id="up_111" type="v1" route="r42" depart="201" />
    <vehicle id="right_112" type="v1" route="r13" depart="202" />
    <vehicle id="up_113" type="v1" route="r42" depart="203" />
    <vehicle id="up_114" type="v1" route="r42" depart="204" />
    <vehicle id="right_115" type="v1" route="r13" depart="205" />
    <vehicle id="up_116" type="v1" route="r42" depart="206" />
    <vehicle id="up_117" type="v1" route="r42" depart="209" />
    <vehicle id="right_118" type="v1" route="r13" depart="211" />
    <vehicle id="right_119" type="v1" route="r13" depart="213" />
    <vehicle id="right_120" type="v1" route="r13" depart="218" />
    <vehicle id="right_121" type="v1" route="r13" depart="220" />
    <vehicle id="right_122" type="v1" route="r13" depart="221" />
    <vehicle id="right_123" type="v1" route="r13" depart="223" />
    <vehicle id="right_124" type="v1" route="r13" depart="224" />
    <vehicle id="up_125" type="v1" route="r42" depart="230" />
    <vehicle id="right_126" type="v1" route="r13" depart="231" />
    <vehicle id="right_127" type="v1" route="r13" depart="233" />
    <vehicle id="up_128" type="v1" route="r42" depart="237" />
    <vehicle id="right_129" type="v1" route="r13" depart="241" />
    <vehicle id="up_130" type="v1" route="r42" depart="242" />
    <vehicle id="up_131" type="v1" route="r42" depart="249" />
    <vehicle id="up_132" type="v1" route="r42" depart="250" />
    <vehicle id="right_133" type="v1" route="r13" depart="251" />
    <vehicle id="up_134" type="v1" route="r42" depart="252" />
    <vehicle id="up_135" type="v1" route="r42" depart="253" />
    <vehicle id="right_136" type="v1" route="r13" depart="257" />
    <vehicle id="right_137" type="v1" route="r13" depart="258" />
    <vehicle id="right_138" type="v1" route="r13" depart="261" />
    <vehicle id="right_139" type="v1" route="r13" depart="264" />
    <vehicle id="right_140" type="v1" route="r13" depart="266" />
    <vehicle id="right_141" type="v1" route="r13" depart="268" />
    <vehicle id="right_142" type="v1" route="r13" depart="271" />
    <vehicle id="right_143" type="v1" route="r13" depart="272" />
    <vehicle id="right_144" type="v1" route="r13" depart="273" />
    <vehicle id="right_145" type="v1" route="r13" depart="274" />
    <vehicle id="right_146" type="v1" route="r13" depart="277" />
    <vehicle id="up_147" type="v1" route="r42" depart="277" />
    <vehicle id="up_148" type="v1" route="r42" depart="280" />
    <vehicle id="right_149" type="v1" route="r13" depart="283" />
    <vehicle id="right_150" type="v1" route="r13" depart="285" />
    <vehicle id="right_151" type="v1" route="r13" depart="286" />
    <vehicle id="right_152" type="v1" route="r13" depart="290" />
    <vehicle id="up_153" type="v1" route="r42" depart="292" />
    <vehicle id="up_154" type="v1" route="r42" depart="293" />
    <vehicle id="right_155" type="v1" route="r13" depart="298" />
    <vehicle id="right_156" type="v1" route="r13" depart="299" />
    <vehicle id="right_157" type="v1" route="r13" depart="304" />
    <vehicle id="up_158" type="v1" route="r42" depart="304" />
    <vehicle id="right_159" type="v1" route="r13" depart="305" />
    <vehicle id="right_160" type="v1" route="r13" depart="306" />
    <vehicle id="right_161" type="v1" route="r13" depart="307" />
    <vehicle id="right_162" type="v1" route="r13" depart="308" />
    <vehicle id="right_163" type="v1" route="r13" depart="309" />
    <vehicle id="right_164" type="v1" route="r13" depart="310" />
    <vehicle id="right_165" type="v1" route="r13" depart="313" />
    <vehicle id="right_166" type="v1" route="r13" depart="314" />
    <vehicle id="right_167" type="v1" route="r13" depart="315" />
    <vehicle id="right_168" type="v1" route="r13" depart="316" />
    <vehicle id="right_169" type="v1" route="r13" depart="317" />
    <vehicle id="right_170" type="v1" route="r13" depart="319" />
    <vehicle id="right_171" type="v1" route="r13" depart="320" />
    <vehicle id="right_172" type="v1" route="r13" depart="322" />
    <vehicle id="right_173" type="v1" route="r13" depart="324" />
    <vehicle id="right_174" type="v1" route="r13" depart="325" />
    <vehicle id="right_175" type="v1" route="r13" depart="326" />
    <vehicle id="right_176" type="v1" route="r13" depart="327" />
    <vehicle id="right_177" type="v1" route="r13" depart="328" />
    <vehicle id="right_178" type="v1" route="r13" depart="330" />
    <vehicle id="right_179" type="v1" route="r13" depart="331" />
    <vehicle id="up_180" type="v1" route="r42" depart="332" />
    <vehicle id="right_181" type="v1" route="r13" depart="333" />
    <vehicle id="right_182" type="v1" route="r13" depart="334" />
    <vehicle id="right_183" type="v1" route="r13" depart="337" />
    <vehicle id="up_184" type="v1" route="r42" depart="340" />
    <vehicle id="right_185" type="v1" route="r13" depart="341" />
    <vehicle id="up_186" type="v1" route="r42" depart="342" />
    <vehicle id="up_187" type="v1" route="r42" depart="343" />
    <vehicle id="right_188" type="v1" route="r13" depart="345" />
    <vehicle id="up_189" type="v1" route="r42" depart="346" />
    <vehicle id="right_190" type="v1" route="r13" depart="347" />
    <vehicle id="up_191" type="v1" route="r42" depart="347" />
    <vehicle id="right_192" type="v1" route="r13" depart="350" />
    <vehicle id="right_193" type="v1" route="r13" depart="352" />
    <vehicle id="right_194" type="v1" route="r13" depart="353" />
    <vehicle id="up_195" type="v1" route="r42" depart="358" />
    <vehicle id="right_196" type="v1" route="r13" depart="360" />
    <vehicle id="right_197" type="v1" route="r13" depart="363" />
    <vehicle id="right_198" type="v1" route="r13" depart="366" />
    <vehicle id="right_199" type="v1" route="r13" depart="369" />
    <vehicle id="right_200" type="v1" route="r13" depart="372" />
    <vehicle id="right_201" type="v1" route="r13" depart="376" />
    <vehicle id="right_202" type="v1" route="r13" depart="378" />
    <vehicle id="right_203" type="v1" route="r13" depart="382" />
    <vehicle id="right_204" type="v1" route="r13" depart="386" />
    <vehicle id="up_205" type="v1" route="r42" depart="387" />
    <vehicle id="right_206" type="v1" route="r13" depart="390" />
    <vehicle id="right_207" type="v1" route="r13" depart="391" />
    <vehicle id="up_208" type="v1" route="r42" depart="391" />
    <vehicle id="right_209" type="v1" route="r13" depart="392" />
    <vehicle id="right_210" type="v1" route="r13" depart="393" />
    <vehicle id="right_211" type="v1" route="r13" depart="395" />
    <vehicle id="up_212" type="v1" route="r42" depart="395" />
    <vehicle id="right_213" type="v1" route="r13" depart="396" />
    <vehicle id="right_214" type="v1" route="r13" depart="397" />
    <vehicle id="right_215" type="v1" route="r13" depart="402" />
    <vehicle id="right_216" type="v1" route="r13" depart="405" />
    <vehicle id="up_217" type="v1" route="r42" depart="409" />
    <vehicle id="right_218" type="v1" route="r13" depart="412" />
    <vehicle id="right_219" type="v1" route="r13" depart="413" />
    <vehicle id="right_220" type="v1" route="r13" depart="414" />
    <vehicle id="up_221" type="v1" route="r42" depart="422" />
    <vehicle id="up_222" type="v1" route="r42" depart="429" />
    <vehicle id="right_223" type="v1" route="r13" depart="430" />
    <vehicle id="up_224" type="v1" route="r42" depart="430" />
    <vehicle id="right_225" type="v1" route="r13" depart="431" />
    <vehicle id="up_226" type="v1" route="r42" depart="431" />
    <vehicle id="right_227" type="v1" route="r13" depart="432" />
    <vehicle id="up_228" type="v1" route="r42" depart="432" />
    <vehicle id="right_229" type="v1" route="r13" depart="433" />
    <vehicle id="up_230" type="v1" route="r42" depart="433" />
    <vehicle id="right_231" type="v1" route="r13" depart="434" />
    <vehicle id="right_232" type="v1" route="r13" depart="437" />
    <vehicle id="up_233" type="v1" route="r42" depart="438" />
    <vehicle id="right_234" type="v1" route="r13" depart="440" />
    <vehicle id="right_235" type="v1" route="r13" depart="441" />
    <vehicle id="right_236" type="v1" route="r13" depart="444" />
    <vehicle id="up_237" type="v1" route="r42" depart="445" />
    <vehicle id="right_238" type="v1" route="r13" depart="446" />
    <vehicle id="up_239" type="v1" route="r42" depart="448" />
    <vehicle id="up_240" type="v1" route="r42" depart="451" />
    <vehicle id="right_241" type="v1" route="r13" depart="456" />
    <vehicle id="up_242" type="v1" route="r42" depart="458" />
    <vehicle id="right_243" type="v1" route="r13" depart="460" />
    <vehicle id="right_244" type="v1" route="r13" depart="461" />
    <vehicle id="right_245" type="v1" route="r13" depart="462" />
    <vehicle id="up_246" type="v1" route="r42" depart="462" />
    <vehicle id="right_247" type="v1" route="r13" depart="463" />
    <vehicle id="right_248" type="v1" route="r13" depart="464" />
    <vehicle id="up_249" type="v1" route="r42" depart="464" />
    <vehicle id="right_250" type="v1" route="r13" depart="465" />
    <vehicle id="right_251" type="v1" route="r13" depart="469" />
    <vehicle id="right_252" type="v1" route="r13" depart="472" />
    <vehicle id="up_253" type="v1" route="r42" depart="472" />
    <vehicle id="right_254" type="v1" route="r13" depart="473" />
    <vehicle id="up_255" type="v1" route="r42" depart="474" />
    <vehicle id="right_256" type="v1" route="r13" depart="479" />
    <vehicle id="right_257" type="v1" route="r13" depart="483" />
    <vehicle id="up_258" type="v1" route="r42" depart="486" />
    <vehicle id="up_259" type="v1" route="r42" depart="488" />
    <vehicle id="right_260" type="v1" route="r13" depart="489" />
    <vehicle id="up_261" type="v1" route="r42" depart="490" />
    <vehicle id="right_262" type="v1" route="r13" depart="491" />
    <vehicle id="right_263" type="v1" route="r13" depart="492" />
    <vehicle id="right_264" type="v1" route="r13" depart="493" />
    <vehicle id="up_265" type="v1" route="r42" depart="494" />
    <vehicle id="up_266" type="v1" route="r42" depart="495" />
    <vehicle id="right_267" type="v1" route="r13" depart="498" />
    <vehicle id="up_268" type="v1" route="r42" depart="500" />
    <vehicle id="up_269" type="v1" route="r42" depart="501" />
    <vehicle id="right_270" type="v1" route="r13" depart="503" />
    <vehicle id="up_271" type="v1" route="r42" depart="503" />
    <vehicle id="right_272" type="v1" route="r13" depart="504" />
    <vehicle id="up_273" type="v1" route="r42" depart="505" />
    <vehicle id="right_274" type="v1" route="r13" depart="512" />
    <vehicle id="right_275" type="v1" route="r13" depart="513" />
    <vehicle id="right_276" type="v1" route="r13" depart="514" />
    <vehicle id="right_277" type="v1" route="r13" depart="515" />
    <vehicle id="right_278" type="v1" route="r13" depart="517" />
    <vehicle id="right_279" type="v1" route="r13" depart="518" />
    <vehicle id="up_280" type="v1" route="r42" depart="518" />
    <vehicle id="right_281" type="v1" route="r13" depart="523" />
    <vehicle id="right_282" type="v1" route="r13" depart="526" />
    <vehicle id="right_283" type="v1" route="r13" depart="527" />
    <vehicle id="right_284" type="v1" route="r13" depart="528" />
    <vehicle id="up_285" type="v1" route="r42" depart="531" />
    <vehicle id="right_286" type="v1" route="r13" depart="532" />
    <vehicle id="right_287" type="v1" route="r13" depart="534" />
    <vehicle id="up_288" type="v1" route="r42" depart="537" />
    <vehicle id="up_289" type="v1" route="r42" depart="538" />
    <vehicle id="right_290" type="v1" route="r13" depart="542" />
    <vehicle id="up_291" type="v1" route="r42" depart="545" />
    <vehicle id="right_292" type="v1" route="r13" depart="547" />
    <vehicle id="right_293" type="v1" route="r13" depart="548" />
    <vehicle id="right_294" type="v1" route="r13" depart="551" />
    <vehicle id="right_295" type="v1" route="r13" depart="554" />
    <vehicle id="up_296" type="v1" route="r42" depart="555" />
    <vehicle id="up_297" type="v1" route="r42" depart="556" />
    <vehicle id="right_298" type="v1" route="r13" depart="557" />
    <vehicle id="right_299" type="v1" route="r13" depart="567" />
    <vehicle id="right_300" type="v1" route="r13" depart="568" />
    <vehicle id="right_301" type="v1" route="r13" depart="570" />
    <vehicle id="right_302" type="v1" route="r13" depart="572" />
    <vehicle id="right_303" type="v1" route="r13" depart="574" />
    <vehicle id="right_304" type="v1" route="r13" depart="575" />
    <vehicle id="right_305" type="v1" route="r13" depart="576" />
    <vehicle id="up_306" type="v1" route="r42" depart="576" />
    <vehicle id="right_307" type="v1" route="r13" depart="580" />
    <vehicle id="up_308" type="v1" route="r42" depart="580" />
    <vehicle id="right_309" type="v1" route="r13" depart="582" />
    <vehicle id="right_310" type="v1" route="r13" depart="583" />
    <vehicle id="up_311" type="v1" route="r42" depart="584" />
    <vehicle id="right_312" type="v1" route="r13" depart="590" />
    <vehicle id="right_313" type="v1" route="r13" depart="591" />
    <vehicle id="right_314" type="v1" route="r13" depart="592" />
    <vehicle id="up_315" type="v1" route="r42" depart="593" />
    <vehicle id="right_316" type="v1" route="r13" depart="594" />
    <vehicle id="up_317" type="v1" route="r42" depart="599" />
    <vehicle id="right_318" type="v1" route="r13" depart="601" />
    <vehicle id="right_319" type="v1" route="r13" depart="602" />
    <vehicle id="right_320" type="v1" route="r13" depart="607" />
    <vehicle id="right_321" type="v1" route="r13" depart="608" />
    <vehicle id="right_322" type="v1" route="r13" depart="610" />
    <vehicle id="right_323" type="v1" route="r13" depart="614" />
    <vehicle id="right_324" type="v1" route="r13" depart="615" />
    <vehicle id="up_325" type="v1" route="r42" depart="615" />
    <vehicle id="right_326" type="v1" route="r13" depart="616" />
    <vehicle id="up_327" type="v1" route="r42" depart="616" />
    <vehicle id="right_328" type="v1" route="r13" depart="617" />
    <vehicle id="right_329" type="v1" route="r13" depart="618" />
    <vehicle id="right_330" type="v1" route="r13" depart="622" />
    <vehicle id="right_331" type="v1" route="r13" depart="623" />
    <vehicle id="up_332" type="v1" route="r42" depart="626" />
    <vehicle id="right_333" type="v1" route="r13" depart="631" />
    <vehicle id="up_334" type="v1" route="r42" depart="631" />
    <vehicle id="right_335" type="v1" route="r13" depart="633" />
    <vehicle id="up_336" type="v1" route="r42" depart="633" />
    <vehicle id="up_337" type="v1" route="r42" depart="637" />
    <vehicle id="right_338" type="v1" route="r13" depart="639" />
    <vehicle id="right_339" type="v1" route="r13" depart="642" />
    <vehicle id="up_340" type="v1" route="r42" depart="644" />
    <vehicle id="up_341" type="v1" route="r42" depart="646" />
    <vehicle id="right_342" type="v1" route="r13" depart="647" />
    <vehicle id="up_343" type="v1" route="r42" depart="647" />
    <vehicle id="right_344" type="v1" route="r13" depart="648" />
    <vehicle id="right_345" type="v1" route="r13" depart="649" />
    <vehicle id="right_346" type="v1" route="r13" depart="650" />
    <vehicle id="right_347" type="v1" route="r13" depart="651" />
    <vehicle id="right_348" type="v1" route="r13" depart="653" />
    <vehicle id="up_349" type="v1" route="r42" depart="653" />
    <vehicle id="right_350" type="v1" route="r13" depart="654" />
    <vehicle id="right_351" type="v1" route="r13" depart="655" />
    <vehicle id="up_352" type="v1" route="r42" depart="655" />
    <vehicle id="right_353" type="v1" route="r13" depart="666" />
    <vehicle id="up_354" type="v1" route="r42" depart="669" />
    <vehicle id="up_355" type="v1" route="r42" depart="675" />
    <vehicle id="up_356" type="v1" route="r42" depart="678" />
    <vehicle id="right_357" type="v1" route="r13" depart="679" />
    <vehicle id="right_358" type="v1" route="r13" depart="680" />
    <vehicle id="up_359" type="v1" route="r42" depart="680" />
    <vehicle id="right_360" type="v1" route="r13" depart="684" />
    <vehicle id="right_361" type="v1" route="r13" depart="685" />
    <vehicle id="up_362" type="v1" route="r42" depart="685" />
    <vehicle id="right_363" type="v1" route="r13" depart="691" />
    <vehicle id="right_364" type="v1" route="r13" depart="692" />
    <vehicle id="right_365" type="v1" route="r13" depart="693" />
    <vehicle id="right_366" type="v1" route="r13" depart="694" />
    <vehicle id="right_367" type="v1" route="r13" depart="696" />
    <vehicle id="up_368" type="v1" route="r42" depart="697" />
    <vehicle id="up_369" type="v1" route="r42" depart="698" />
    <vehicle id="right_370" type="v1" route="r13" depart="701" />
    <vehicle id="right_371" type="v1" route="r13" depart="702" />
    <vehicle id="right_372" type="v1" route="r13" depart="703" />
    <vehicle id="right_373" type="v1" route="r13" depart="714" />
    <vehicle id="right_374" type="v1" route="r13" depart="719" />
    <vehicle id="right_375" type="v1" route="r13" depart="723" />
    <vehicle id="up_376" type="v1" route="r42" depart="723" />
    <vehicle id="right_377" type="v1" route="r13" depart="724" />
    <vehicle id="right_378" type="v1" route="r13" depart="725" />
    <vehicle id="right_379" type="v1" route="r13" depart="727" />
    <vehicle id="right_380" type="v1" route="r13" depart="733" />
    <vehicle id="right_381" type="v1" route="r13" depart="734" />
    <vehicle id="right_382" type="v1" route="r13" depart="735" />
    <vehicle id="right_383" type="v1" route="r13" depart="736" />
    <vehicle id="right_384" type="v1" route="r13" depart="738" />
    <vehicle id="up_385" type="v1" route="r42" depart="743" />
    <vehicle id="right_386" type="v1" route="r13" depart="747" />
    <vehicle id="right_387" type="v1" route="r13" depart="749" />
    <vehicle id="right_388" type="v1" route="r13" depart="753" />
    <vehicle id="right_389" type="v1" route="r13" depart="754" />
    <vehicle id="right_390" type="v1" route="r13" depart="757" />
    <vehicle id="right_391" type="v1" route="r13" depart="759" />
    <vehicle id="right_392" type="v1" route="r13" depart="760" />
    <vehicle id="right_393" type="v1" route="r13" depart="761" />
    <vehicle id="right_394" type="v1" route="r13" depart="763" />
    <vehicle id="right_395" type="v1" route="r13" depart="764" />
    <vehicle id="up_396" type="v1" route="r42" depart="764" />
    <vehicle id="up_397" type="v1" route="r42" depart="765" />
    <vehicle id="right_398" type="v1" route="r13" depart="766" />
    <vehicle id="up_399" type="v1" route="r42" depart="766" />
    <vehicle id="right_400" type="v1" route="r13" depart="767" />
    <vehicle id="right_401" type="v1" route="r13" depart="768" />
    <vehicle id="right_402" type="v1" route="r13" depart="769" />
    <vehicle id="up_403" type="v1" route="r42" depart="776" />
    <vehicle id="right_404" type="v1" route="r13" depart="777" />
    <vehicle id="up_405" type="v1" route="r42" depart="777" />
    <vehicle id="right_406" type="v1" route="r13" depart="782" />
    <vehicle id="right_407" type="v1" route="r13" depart="783" />
    <vehicle id="right_408" type="v1" route="r13" depart="787" />
    <vehicle id="right_409" type="v1" route="r13" depart="788" />
    <vehicle id="right_410" type="v1" route="r13" depart="789" />
    <vehicle id="up_411" type="v1" route="r42" depart="789" />
    <vehicle id="right_412" type="v1" route="r13" depart="790" />
    <vehicle id="up_413" type="v1" route="r42" depart="797" />
    <vehicle id="right_414" type="v1" route="r13" depart="799" />
    <vehicle id="right_415" type="v1" route="r13" depart="801" />
    <vehicle id="right_416" type="v1" route="r13" depart="806" />
    <vehicle id="right_417" type="v1" route="r13" depart="810" />
    <vehicle id="right_418" type="v1" route="r13" depart="811" />
    <vehicle id="right_419" type="v1" route="r13" depart="812" />
    <vehicle id="right_420" type="v1" route="r13" depart="813" />
    <vehicle id="up_421" type="v1" route="r42" depart="813" />
    <vehicle id="right_422" type="v1" route="r13" depart="814" />
    <vehicle id="right_423" type="v1" route="r13" depart="815" />
    <vehicle id="right_424" type="v1" route="r13" depart="816" />
    <vehicle id="up_425" type="v1" route="r42" depart="816" />
    <vehicle id="right_426" type="v1" route="r13" depart="817" />
    <vehicle id="right_427" type="v1" route="r13" depart="819" />
    <vehicle id="up_428" type="v1" route="r42" depart="820" />
    <vehicle id="right_429" type="v1" route="r13" depart="822" />
    <vehicle id="right_430" type="v1" route="r13" depart="823" />
    <vehicle id="right_431" type="v1" route="r13" depart="824" />
    <vehicle id="right_432" type="v1" route="r13" depart="825" />
    <vehicle id="right_433" type="v1" route="r13" depart="826" />
    <vehicle id="right_434" type="v1" route="r13" depart="827" />
    <vehicle id="right_435" type="v1" route="r13" depart="828" />
    <vehicle id="right_436" type="v1" route="r13" depart="829" />
    <vehicle id="up_437" type="v1" route="r42" depart="833" />
    <vehicle id="right_438" type="v1" route="r13" depart="834" />
    <vehicle id="right_439" type="v1" route="r13" depart="835" />
    <vehicle id="up_440" type="v1" route="r42" depart="835" />
    <vehicle id="up_441" type="v1" route="r42" depart="836" />
    <vehicle id="right_442" type="v1" route="r13" depart="837" />
    <vehicle id="up_443" type="v1" route="r42" depart="837" />
    <vehicle id="right_444" type="v1" route="r13" depart="843" />
    <vehicle id="right_445" type="v1" route="r13" depart="847" />
    <vehicle id="right_446" type="v1" route="r13" depart="849" />
    <vehicle id="right_447" type="v1" route="r13" depart="850" />
    <vehicle id="up_448" type="v1" route="r42" depart="850" />
    <vehicle id="right_449" type="v1" route="r13" depart="851" />
    <vehicle id="right_450" type="v1" route="r13" depart="852" />
    <vehicle id="right_451" type="v1" route="r13" depart="854" />
    <vehicle id="up_452" type="v1" route="r42" depart="854" />
    <vehicle id="right_453" type="v1" route="r13" depart="868" />
    <vehicle id="right_454" type="v1" route="r13" depart="869" />
    <vehicle id="right_455" type="v1" route="r13" depart="870" />
    <vehicle id="right_456" type="v1" route="r13" depart="871" />
    <vehicle id="up_457" type="v1" route="r42" depart="871" />
    <vehicle id="right_458" type="v1" route="r13" depart="878" />
    <vehicle id="right_459" type="v1" route="r13" depart="883" />