<routes>
        <vType id="v1" accel="2.6" decel="4.5" sigma="0.5" length="5" minGap="2.5" maxSpeed="55" guiShape="passenger"/>

        <route id="r13" edges="e10 e03" />
        <route id="r42" edges="e40 e02" />
    <vehicle id="right_0" type="v1" route="r13" depart="3" />
    <vehicle id="right_1" type="v1" route="r13" depart="4" />
    <vehicle id="up_2" type="v1" route="r42" depart="7" />
    <vehicle id="up_3" type="v1" route="r42" depart="8" />
    <vehicle id="right_4" type="v1" route="r13" depart="12" />
    <vehicle id="right_5" type="v1" route="r13" depart="15" />
    <vehicle id="right_6" type="v1" route="r13" depart="18" />
    <vehicle id="up_7" type="v1" route="r42" depart="18" />
    <vehicle id="right_8" type="v1" route="r13" depart="19" />
    <vehicle id="up_9" type="v1" route="r42" depart="21" />
    <vehicle id="right_10" type="v1" route="r13" depart="22" />
    <vehicle id="right_11" type="v1" route="r13" depart="23" />
    <vehicle id="up_12" type="v1" route="r42" depart="23" />
    <vehicle id="up_13" type="v1" route="r42" depart="24" />
    <vehicle id="up_14" type="v1" route="r42" depart="26" />
    <vehicle id="right_15" type="v1" route="r13" depart="29" />
    <vehicle id="right_16" type="v1" route="r13" depart="32" />
    <vehicle id="right_17" type="v1" route="r13" depart="33" />
    <vehicle id="right_18" type="v1" route="r13" depart="35" />
    <vehicle id="up_19" type="v1" route="r42" depart="35" />
    <vehicle id="up_20" type="v1" route="r42" depart="37" />
    <vehicle id="right_21" type="v1" route="r13" depart="38" />
    <vehicle id="up_22" type="v1" route="r42" depart="42" />
    <vehicle id="right_23" type="v1" route="r13" depart="49" />
    <vehicle id="up_24" type="v1" route="r42" depart="49" />
    <vehicle id="right_25" type="v1" route="r13" depart="52" />
    <vehicle id="right_26" type="v1" route="r13" depart="55" />
    <vehicle id="up_27" type="v1" route="r42" depart="56" />
    <vehicle id="right_28" type="v1" route="r13" depart="59" />
    <vehicle id="right_29" type="v1" route="r13" depart="60" />
    <vehicle id="right_30" type="v1" route="r13" depart="64" />
    <vehicle id="right_31" type="v1" route="r13" depart="65" />
    <vehicle id="right_32" type="v1" route="r13" depart="67" />
    <vehicle id="up_33" type="v1" route="r42" depart="68" />
    <vehicle id="right_34" type="v1" route="r13" depart="69" />
    <vehicle id="up_35" type="v1" route="r42" depart="70" />
    <vehicle id="right_36" type="v1" route="r13" depart="71" />
    <vehicle id="right_37" type="v1" route="r13" depart="73" />
    <vehicle id="up_38" type="v1" route="r42" depart="73" />
    <vehicle id="up_39" type="v1" route="r42" depart="76" />
    <vehicle id="right_40" type="v1" route="r13" depart="77" />
    <vehicle id="right_41" type="v1" route="r13" depart="79" />
    <vehicle id="right_42" type="v1" route="r13" depart="81" />
    <vehicle id="right_43" type="v1" route="r13" depart="87" />
    <vehicle id="right_44" type="v1" route="r13" depart="88" />
    <vehicle id="right_45" type="v1" route="r13" depart="91" />
    <vehicle id="right_46" type="v1" route="r13" depart="92" />
    <vehicle id="right_47" type="v1" route="r13" depart="94" />
    <vehicle id="right_48" type="v1" route="r13" depart="96" />
    <vehicle id="right_49" type="v1" route="r13" depart="97" />
    <vehicle id="right_50" type="v1" route="r13" depart="99" />
    <vehicle id="right_51" type="v1" route="r13" depart="100" />
    <vehicle id="right_52" type="v1" route="r13" depart="101" />
    <vehicle id="right_53" type="v1" route="r13" depart="102" />
    <vehicle id="right_54" type="v1" route="r13" depart="104" />
    <vehicle id="right_55" type="v1" route="r13" depart="105" />
    <vehicle id="right_56" type="v1" route="r13" depart="107" />
    <vehicle id="right_57" type="v1" route="r13" depart="109" />
    <vehicle id="right_58" type="v1" route="r13" depart="110" />
    <vehicle id="up_59" type="v1" route="r42" depart="112" />
    <vehicle id="right_60" type="v1" route="r13" depart="113" />
    <vehicle id="up_61" type="v1" route="r42" depart="113" />
    <vehicle id="right_62" type="v1" route="r13" depart="114" />
    <vehicle id="right_63" type="v1" route="r13" depart="117" />
    <vehicle id="up_64" type="v1" route="r42" depart="117" />
    <vehicle id="right_65" type="v1" route="r13" depart="119" />
    <vehicle id="up_66" type="v1" route="r42" depart="121" />
    <vehicle id="up_67" type="v1" route="r42" depart="124" />
    <vehicle id="right_68" type="v1" route="r13" depart="125" />
    <vehicle id="up_69" type="v1" route="r42" depart="125" />
    <vehicle id="right_70" type="v1" route="r13" depart="128" />
    <vehicle id="right_71" type="v1" route="r13" depart="129" />
    <vehicle id="right_72" type="v1" route="r13" depart="130" />
    <vehicle id="right_73" type="v1" route="r13" depart="131" />
    <vehicle id="right_74" type="v1" route="r13" depart="133" />
    <vehicle id="right_75" type="v1" route="r13" depart="134" />
    <vehicle id="right_76" type="v1" route="r13" depart="135" />
    <vehicle id="right_77" type="v1" route="r13" depart="136" />
    <vehicle id="right_78" type="v1" route="r13" depart="137" />
    <vehicle id="up_79" type="v1" route="r42" depart="138" />
    <vehicle id="right_80" type="v1" route="r13" depart="140" />
    <vehicle id="right_81" type="v1" route="r13" depart="142" />
    <vehicle id="up_82" type="v1" route="r42" depart="145" />
    <vehicle id="right_83" type="v1" route="r13" depart="149" />
    <vehicle id="right_84" type="v1" route="r13" depart="150" />
    <vehicle id="right_85" type="v1" route="r13" depart="151" />
    <vehicle id="up_86" type="v1" route="r42" depart="157" />
    <vehicle id="right_87" type="v1" route="r13" depart="158" />
    <vehicle id="up_88" type="v1" route="r42" depart="161" />
    <vehicle id="right_89" type="v1" route="r13" depart="167" />
    <vehicle id="right_90" type="v1" route="r13" depart="170" />
    <vehicle id="up_91" type="v1" route="r42" depart="171" />
    <vehicle id="right_92" type="v1" route="r13" depart="173" />
    <vehicle id="right_93" type="v1" route="r13" depart="177" />
    <vehicle id="right_94" type="v1" route="r13" depart="178" />
    <vehicle id="up_95" type="v1" route="r42" depart="179" />
    <vehicle id="up_96" type="v1" route="r42" depart="182" />
    <vehicle id="right_97" type="v1" route="r13" depart="183" />
    <vehicle id="right_98" type="v1" route="r13" depart="186" />
    <vehicle id="up_99" type="v1" route="r42" depart="188" />
    <vehicle id="up_100" type="v1" route="r42" depart="197" />
    <vehicle id="right_101" type="v1" route="r13" depart="198" />
    <vehicle id="up_102" type="v1" route="r42" depart="198" />
    <vehicle id="right_103" type="v1" route="r13" depart="199" />
    <vehicle id="right_104" type="v1" route="r13" depart="200" />
    <vehicle id="right_105" type="v1" route="r13" depart="202" />
    <vehicle id="right_106" type="v1" route="r13" depart="203" />
    <vehicle id="right_107" type="v1" route="r13" depart="204" />
    <vehicle id="up_108" type="v1" route="r42" depart="204" />
    <vehicle id="right_109" type="v1" route="r13" depart="205" />
    <vehicle id="up_110" type="v1" route="r42" depart="206" />
    <vehicle id="right_111" type="v1" route="r13" depart="207" />
    <vehicle id="up_112" type="v1" route="r42" depart="207" />
    <vehicle id="up_113" type="v1" route="r42" depart="208" />
    <vehicle id="up_114" type="v1" route="r42" depart="214" />
    <vehicle id="right_115" type="v1" route="r13" depart="215" />
    <vehicle id="right_116" type="v1" route="r13" depart="216" />
    <vehicle id="up_117" type="v1" route="r42" depart="218" />
    <vehicle id="right_118" type="v1" route="r13" depart="221" />
    <vehicle id="right_119" type="v1" route="r13" depart="225" />
    <vehicle id="right_120" type="v1" route="r13" depart="228" />
    <vehicle id="right_121" type="v1" route="r13" depart="230" />
    <vehicle id="right_122" type="v1" route="r13" depart="231" />
    <vehicle id="up_123" type="v1" route="r42" depart="234" />
    <vehicle id="right_124" type="v1" route="r13" depart="236" />
    <vehicle id="up_125" type="v1" route="r42" depart="236" />
    <vehicle id="right_126" type="v1" route="r13" depart="240" />
    <vehicle id="right_127" type="v1" route="r13" depart="243" />
    <vehicle id="right_128" type="v1" route="r13" depart="245" />
    <vehicle id="right_129" type="v1" route="r13" depart="247" />
    <vehicle id="right_130" type="v1" route="r13" depart="248" />
    <vehicle id="right_131" type="v1" route="r13" depart="250" />
    <vehicle id="right_132" type="v1" route="r13" depart="251" />
    <vehicle id="right_133" type="v1" route="r13" depart="252" />
    <vehicle id="up_134" type="v1" route="r42" depart="254" />
    <vehicle id="right_135" type="v1" route="r13" depart="265" />
    <vehicle id="right_136" type="v1" route="r13" depart="267" />
    <vehicle id="up_137" type="v1" route="r42" depart="268" />
    <vehicle id="up_138" type="v1" route="r42" depart="270" />
    <vehicle id="right_139" type="v1" route="r13" depart="271" />
    <vehicle id="up_140" type="v1" route="r42" depart="274" />
    <vehicle id="right_141" type="v1" route="r13" depart="279" />
    <vehicle id="up_142" type="v1" route="r42" depart="280" />
    <vehicle id="right_143" type="v1" route="r13" depart="281" />
    <vehicle id="up_144" type="v1" route="r42" depart="283" />
    <vehicle id="up_145" type="v1" route="r42" depart="289" />
    <vehicle id="up_146" type="v1" route="r42" depart="290" />
    <vehicle id="up_147" type="v1" route="r42" depart="296" />
    <vehicle id="right_148" type="v1" route="r13" depart="298" />
    <vehicle id="up_149" type="v1" route="r42" depart="302" />
    <vehicle id="right_150" type="v1" route="r13" depart="305" />
    <vehicle id="right_151" type="v1" route="r13" depart="306" />
    <vehicle id="right_152" type="v1" route="r13" depart="307" />
    <vehicle id="right_153" type="v1" route="r13" depart="308" />
    <vehicle id="right_154" type="v1" route="r13" depart="309" />
    <vehicle id="right_155" type="v1" route="r13" depart="311" />
    <vehicle id="up_156" type="v1" route="r42" depart="315" />
    <vehicle id="right_157" type="v1" route="r13" depart="318" />
    <vehicle id="up_158" type="v1" route="r42" depart="320" />
    <vehicle id="right_159" type="v1" route="r13" depart="321" />
    <vehicle id="right_160" type="v1" route="r13" depart="322" />
    <vehicle id="up_161" type="v1" route="r42" depart="327" />
    <vehicle id="right_162" type="v1" route="r13" depart="332" />
    <vehicle id="right_163" type="v1" route="r13" depart="334" />
    <vehicle id="right_164" type="v1" route="r13" depart="335" />
    <vehicle id="right_165" type="v1" route="r13" depart="338" />
    <vehicle id="right_166" type="v1" route="r13" depart="339" />
    <vehicle id="up_167" type="v1" route="r42" depart="339" />
    <vehicle id="right_168" type="v1" route="r13" depart="345" />
    <vehicle id="up_169" type="v1" route="r42" depart="345" />
    <vehicle id="right_170" type="v1" route="r13" depart="349" />
    <vehicle id="right_171" type="v1" route="r13" depart="350" />
    <vehicle id="up_172" type="v1" route="r42" depart="353" />
    <vehicle id="up_173" type="v1" route="r42" depart="356" />
    <vehicle id="right_174" type="v1" route="r13" depart="359" />
    <vehicle id="up_175" type="v1" route="r42" depart="359" />
    <vehicle id="up_176" type="v1" route="r42" depart="360" />
    <vehicle id="up_177" type="v1" route="r42" depart="364" />
    <vehicle id="right_178" type="v1" route="r13" depart="365" />
    <vehicle id="up_179" type="v1" route="r42" depart="367" />
    <vehicle id="up_180" type="v1" route="r42" depart="371" />
    <vehicle id="right_181" type="v1" route="r13" depart="372" />
    <vehicle id="right_182" type="v1" route="r13" depart="373" />
    <vehicle id="right_183" type="v1" route="r13" depart="374" />
    <vehicle id="up_184" type="v1" route="r42" depart="374" />
    <vehicle id="right_185" type="v1" route="r13" depart="375" />
    <vehicle id="right_186" type="v1" route="r13" depart="376" />
    <vehicle id="up_187" type="v1" route="r42" depart="379" />
    <vehicle id="right_188" type="v1" route="r13" depart="380" />
    <vehicle id="right_189" type="v1" route="r13" depart="381" />
    <vehicle id="right_190" type="v1" route="r13" depart="382" />
    <vehicle id="right_191" type="v1" route="r13" depart="383" />
    <vehicle id="right_192" type="v1" route="r13" depart="384" />
    <vehicle id="right_193" type="v1" route="r13" depart="385" />
    <vehicle id="up_194" type="v1" route="r42" depart="385" />
    <vehicle id="up_195" type="v1" route="r42" depart="387" />
    <vehicle id="right_196" type="v1" route="r13" depart="388" />
    <vehicle id="up_197" type="v1" route="r42" depart="390" />
    <vehicle id="right_198" type="v1" route="r13" depart="393" />
    <vehicle id="up_199" type="v1" route="r42" depart="396" />
    <vehicle id="right_200" type="v1" route="r13" depart="399" />
    <vehicle id="right_201" type="v1" route="r13" depart="402" />
    <vehicle id="right_202" type="v1" route="r13" depart="403" />
    <vehicle id="right_203" type="v1" route="r13" depart="405" />
    <vehicle id="right_204" type="v1" route="r13" depart="406" />
    <vehicle id="right_205" type="v1" route="r13" depart="407" />
    <vehicle id="right_206" type="v1" route="r13" depart="412" />
    <vehicle id="right_207" type="v1" route="r13" depart="415" />
    <vehicle id="right_208" type="v1" route="r13" depart="418" />
    <vehicle id="up_209" type="v1" route="r42" depart="419" />
    <vehicle id="right_210" type="v1" route="r13" depart="421" />
    <vehicle id="right_211" type="v1" route="r13" depart="423" />
    <vehicle id="right_212" type="v1" route="r13" depart="425" />
    <vehicle id="right_213" type="v1" route="r13" depart="434" />
    <vehicle id="right_214" type="v1" route="r13" depart="437" />
    <vehicle id="up_215" type="v1" route="r42" depart="440" />
    <vehicle id="right_216" type="v1" route="r13" depart="444" />
    <vehicle id="right_217" type="v1" route="r13" depart="445" />
    <vehicle id="right_218" type="v1" route="r13" depart="446" />
    <vehicle id="right_219" type="v1" route="r13" depart="447" />
    <vehicle id="right_220" type="v1" route="r13" depart="449" />
    <vehicle id="right_221" type="v1" route="r13" depart="452" />
    <vehicle id="up_222" type="v1" route="r42" depart="455" />
    <vehicle id="right_223" type="v1" route="r13" depart="456" />
    <vehicle id="right_224" type="v1" route="r13" depart="457" />
    <vehicle id="right_225" type="v1" route="r13" depart="459" />
    <vehicle id="up_226" type="v1" route="r42" depart="459" />
    <vehicle id="up_227" type="v1" route="r42" depart="460" />
    <vehicle id="up_228" type="v1" route="r42" depart="461" />
    <vehicle id="right_229" type="v1" route="r13" depart="462" />
    <vehicle id="up_230" type="v1" route="r42" depart="465" />
    <vehicle id="right_231" type="v1" route="r13" depart="468" />
    <vehicle id="up_232" type="v1" route="r42" depart="473" />
    <vehicle id="right_233" type="v1" route="r13" depart="474" />
    <vehicle id="up_234" type="v1" route="r42" depart="474" />
    <vehicle id="up_235" type="v1" route="r42" depart="476" />
    <vehicle id="right_236" type="v1" route="r13" depart="477" />
    <vehicle id="up_237" type="v1" route="r42" depart="479" />
    <vehicle id="right_238" type="v1" route="r13" depart="480" />
    <vehicle id="up_239" type="v1" route="r42" depart="484" />
    <vehicle id="right_240" type="v1" route="r13" depart="485" />
    <vehicle id="up_241" type="v1" route="r42" depart="488" />
    <vehicle id="up_242" type="v1" route="r42" depart="489" />
    <vehicle id="right_243" type="v1" route="r13" depart="492" />
    <vehicle id="up_244" type="v1" route="r42" depart="492" />
    <vehicle id="up_245" type="v1" route="r42" depart="493" />
    <vehicle id="right_246" type="v1" route="r13" depart="494" />
    <vehicle id="right_247" type="v1" route="r13" depart="495" />
    <vehicle id="right_248" type="v1" route="r13" depart="498" />
    <vehicle id="up_249" type="v1" route="r42" depart="500" />
    <vehicle id="right_250" type="v1" route="r13" depart="501" />
    <vehicle id="right_251" type="v1" route="r13" depart="504" />
    <vehicle id="right_252" type="v1" route="r13" depart="505" />
    <vehicle id="right_253" type="v1" route="r13" depart="506" />
    <vehicle id="up_254" type="v1" route="r42" depart="507" />
    <vehicle id="up_255" type="v1" route="r42" depart="509" />
    <vehicle id="up_256" type="v1" route="r42" depart="510" />
    <vehicle id="right_257" type="v1" route="r13" depart="513" />
    <vehicle id="up_258" type="v1" route="r42" depart="513" />
    <vehicle id="up_259" type="v1" route="r42" depart="514" />
    <vehicle id="up_260" type="v1" route="r42" depart="518" />
    <vehicle id="right_261" type="v1" route="r13" depart="522" />
    <vehicle id="right_262" type="v1" route="r13" depart="524" />
    <vehicle id="up_263" type="v1" route="r42" depart="524" />
    <vehicle id="right_264" type="v1" route="r13" depart="525" />
    <vehicle id="up_265" type="v1" route="r42" depart="526" />
    <vehicle id="right_266" type="v1" route="r13" depart="527" />
    <vehicle id="up_267" type="v1" route="r42" depart="527" />
    <vehicle id="right_268" type="v1" route="r13" depart="529" />
    <vehicle id="up_269" type="v1" route="r42" depart="529" />
    <vehicle id="up_270" type="v1" route="r42" depart="534" />
    <vehicle id="right_271" type="v1" route="r13" depart="535" />
    <vehicle id="right_272" type="v1" route="r13" depart="536" />
    <vehicle id="right_273" type="v1" route="r13" depart="544" />
    <vehicle id="right_274" type="v1" route="r13" depart="545" />
    <vehicle id="right_275" type="v1" route="r13" depart="548" />
    <vehicle id="right_276" type="v1" route="r13" depart="552" />
    <vehicle id="up_277" type="v1" route="r42" depart="552" />
    <vehicle id="right_278" type="v1" route="r13" depart="554" />
    <vehicle id="right_279" type="v1" route="r13" depart="556" />
    <vehicle id="up_280" type="v1" route="r42" depart="556" />
    <vehicle id="right_281" type="v1" route="r13" depart="557" />
    <vehicle id="up_282" type="v1" route="r42" depart="560" />
    <vehicle id="up_283" type="v1" route="r42" depart="561" />
    <vehicle id="right_284" type="v1" route="r13" depart="563" />
    <vehicle id="up_285" type="v1" route="r42" depart="564" />
    <vehicle id="right_286" type="v1" route="r13" depart="568" />
    <vehicle id="right_287" type="v1" route="r13" depart="569" />
    <vehicle id="up_288" type="v1" route="r42" depart="570" />
    <vehicle id="right_289" type="v1" route="r13" depart="571" />
    <vehicle id="right_290" type="v1" route="r13" depart="572" />
    <vehicle id="right_291" type="v1" route="r13" depart="573" />
    <vehicle id="right_292" type="v1" route="r13" depart="578" />
    <vehicle id="up_293" type="v1" route="r42" depart="578" />
    <vehicle id="right_294" type="v1" route="r13" depart="580" />
    <vehicle id="up_295" type="v1" route="r42" depart="582" />
    <vehicle id="up_296" type="v1" route="r42" depart="583" />
    <vehicle id="right_297" type="v1" route="r13" depart="585" />
    <vehicle id="right_298" type="v1" route="r13" depart="587" />
    <vehicle id="up_299" type="v1" route="r42" depart="588" />
    <vehicle id="right_300" type="v1" route="r13" depart="589" />
    <vehicle id="right_301" type="v1" route="r13" depart="590" />
    <vehicle id="up_302" type="v1" route="r42" depart="590" />
    <vehicle id="right_303" type="v1" route="r13" depart="593" />
    <vehicle id="up_304" type="v1" route="r42" depart="594" />
    <vehicle id="right_305" type="v1" route="r13" depart="597" />
    <vehicle id="right_306" type="v1" route="r13" depart="598" />
    <vehicle id="right_307" type="v1" route="r13" depart="599" />
</routes>
