<routes>
        <vType id="v1" accel="2.6" decel="4.5" sigma="0.5" length="5" minGap="2.5" maxSpeed="55" guiShape="passenger"/>

        <route id="r13" edges="96027913#0 96027913#2 30186293 311389510#1" />
        <route id="r42" edges="-355113043#1 -24626686#2 -24626686#1 -34992983#3 -34992983#1" />
    <vehicle id="up_0" type="v1" route="r42" depart="1" />
    <vehicle id="up_1" type="v1" route="r42" depart="2" />
    <vehicle id="right_2" type="v1" route="r13" depart="7" />
    <vehicle id="right_3" type="v1" route="r13" depart="8" />
    <vehicle id="right_4" type="v1" route="r13" depart="9" />
    <vehicle id="right_5" type="v1" route="r13" depart="10" />
    <vehicle id="right_6" type="v1" route="r13" depart="11" />
    <vehicle id="right_7" type="v1" route="r13" depart="15" />
    <vehicle id="right_8" type="v1" route="r13" depart="16" />
    <vehicle id="right_9" type="v1" route="r13" depart="22" />
    <vehicle id="right_10" type="v1" route="r13" depart="23" />
    <vehicle id="right_11" type="v1" route="r13" depart="24" />
    <vehicle id="right_12" type="v1" route="r13" depart="30" />
    <vehicle id="right_13" type="v1" route="r13" depart="32" />
    <vehicle id="up_14" type="v1" route="r42" depart="34" />
    <vehicle id="right_15" type="v1" route="r13" depart="37" />
    <vehicle id="right_16" type="v1" route="r13" depart="38" />
    <vehicle id="up_17" type="v1" route="r42" depart="40" />
    <vehicle id="right_18" type="v1" route="r13" depart="42" />
    <vehicle id="right_19" type="v1" route="r13" depart="43" />
    <vehicle id="right_20" type="v1" route="r13" depart="44" />
    <vehicle id="up_21" type="v1" route="r42" depart="45" />
    <vehicle id="right_22" type="v1" route="r13" depart="47" />
    <vehicle id="up_23" type="v1" route="r42" depart="49" />
    <vehicle id="right_24" type="v1" route="r13" depart="52" />
    <vehicle id="up_25" type="v1" route="r42" depart="57" />
    <vehicle id="right_26" type="v1" route="r13" depart="59" />
    <vehicle id="right_27" type="v1" route="r13" depart="61" />
    <vehicle id="up_28" type="v1" route="r42" depart="61" />
    <vehicle id="up_29" type="v1" route="r42" depart="62" />
    <vehicle id="right_30" type="v1" route="r13" depart="63" />
    <vehicle id="right_31" type="v1" route="r13" depart="64" />
    <vehicle id="right_32" type="v1" route="r13" depart="67" />
    <vehicle id="right_33" type="v1" route="r13" depart="73" />
    <vehicle id="right_34" type="v1" route="r13" depart="75" />
    <vehicle id="right_35" type="v1" route="r13" depart="76" />
    <vehicle id="up_36" type="v1" route="r42" depart="78" />
    <vehicle id="right_37" type="v1" route="r13" depart="79" />
    <vehicle id="right_38" type="v1" route="r13" depart="80" />
    <vehicle id="right_39" type="v1" route="r13" depart="81" />
    <vehicle id="right_40" type="v1" route="r13" depart="82" />
    <vehicle id="right_41" type="v1" route="r13" depart="83" />
    <vehicle id="up_42" type="v1" route="r42" depart="84" />
    <vehicle id="right_43" type="v1" route="r13" depart="86" />
    <vehicle id="up_44" type="v1" route="r42" depart="87" />
    <vehicle id="right_45" type="v1" route="r13" depart="88" />
    <vehicle id="right_46" type="v1" route="r13" depart="90" />
    <vehicle id="up_47" type="v1" route="r42" depart="90" />
    <vehicle id="up_48" type="v1" route="r42" depart="92" />
    <vehicle id="up_49" type="v1" route="r42" depart="94" />
    <vehicle id="right_50" type="v1" route="r13" depart="95" />
    <vehicle id="right_51" type="v1" route="r13" depart="96" />
    <vehicle id="right_52" type="v1" route="r13" depart="97" />
    <vehicle id="up_53" type="v1" route="r42" depart="98" />
    <vehicle id="right_54" type="v1" route="r13" depart="99" />
    <vehicle id="right_55" type="v1" route="r13" depart="101" />
    <vehicle id="up_56" type="v1" route="r42" depart="101" />
    <vehicle id="right_57" type="v1" route="r13" depart="102" />
    <vehicle id="up_58" type="v1" route="r42" depart="102" />
    <vehicle id="up_59" type="v1" route="r42" depart="104" />
    <vehicle id="up_60" type="v1" route="r42" depart="107" />
    <vehicle id="up_61" type="v1" route="r42" depart="109" />
    <vehicle id="right_62" type="v1" route="r13" depart="114" />
    <vehicle id="right_63" type="v1" route="r13" depart="120" />
    <vehicle id="right_64" type="v1" route="r13" depart="121" />
    <vehicle id="right_65" type="v1" route="r13" depart="122" />
    <vehicle id="right_66" type="v1" route="r13" depart="123" />
    <vehicle id="up_67" type="v1" route="r42" depart="123" />
    <vehicle id="up_68" type="v1" route="r42" depart="124" />
    <vehicle id="right_69" type="v1" route="r13" depart="127" />
    <vehicle id="up_70" type="v1" route="r42" depart="127" />
    <vehicle id="right_71" type="v1" route="r13" depart="128" />
    <vehicle id="right_72" type="v1" route="r13" depart="129" />
    <vehicle id="up_73" type="v1" route="r42" depart="129" />
    <vehicle id="right_74" type="v1" route="r13" depart="130" />
    <vehicle id="up_75" type="v1" route="r42" depart="130" />
    <vehicle id="right_76" type="v1" route="r13" depart="131" />
    <vehicle id="right_77" type="v1" route="r13" depart="133" />
    <vehicle id="right_78" type="v1" route="r13" depart="134" />
    <vehicle id="right_79" type="v1" route="r13" depart="136" />
    <vehicle id="right_80" type="v1" route="r13" depart="137" />
    <vehicle id="right_81" type="v1" route="r13" depart="138" />
    <vehicle id="up_82" type="v1" route="r42" depart="138" />
    <vehicle id="right_83" type="v1" route="r13" depart="140" />
    <vehicle id="right_84" type="v1" route="r13" depart="142" />
    <vehicle id="right_85" type="v1" route="r13" depart="145" />
    <vehicle id="right_86" type="v1" route="r13" depart="147" />
    <vehicle id="right_87" type="v1" route="r13" depart="148" />
    <vehicle id="right_88" type="v1" route="r13" depart="150" />
    <vehicle id="up_89" type="v1" route="r42" depart="150" />
    <vehicle id="up_90" type="v1" route="r42" depart="157" />
    <vehicle id="right_91" type="v1" route="r13" depart="159" />
    <vehicle id="up_92" type="v1" route="r42" depart="160" />
    <vehicle id="right_93" type="v1" route="r13" depart="162" />
    <vehicle id="right_94" type="v1" route="r13" depart="163" />
    <vehicle id="up_95" type="v1" route="r42" depart="165" />
    <vehicle id="right_96" type="v1" route="r13" depart="166" />
    <vehicle id="right_97" type="v1" route="r13" depart="168" />
    <vehicle id="right_98" type="v1" route="r13" depart="174" />
    <vehicle id="up_99" type="v1" route="r42" depart="174" />
    <vehicle id="right_100" type="v1" route="r13" depart="175" />
    <vehicle id="right_101" type="v1" route="r13" depart="176" />
    <vehicle id="right_102" type="v1" route="r13" depart="177" />
    <vehicle id="up_103" type="v1" route="r42" depart="177" />
    <vehicle id="right_104" type="v1" route="r13" depart="178" />
    <vehicle id="right_105" type="v1" route="r13" depart="179" />
    <vehicle id="right_106" type="v1" route="r13" depart="180" />
    <vehicle id="right_107" type="v1" route="r13" depart="181" />
    <vehicle id="up_108" type="v1" route="r42" depart="183" />
    <vehicle id="up_109" type="v1" route="r42" depart="185" />
    <vehicle id="right_110" type="v1" route="r13" depart="186" />
    <vehicle id="up_111" type="v1" route="r42" depart="186" />
    <vehicle id="right_112" type="v1" route="r13" depart="187" />
    <vehicle id="up_113" type="v1" route="r42" depart="188" />
    <vehicle id="up_114" type="v1" route="r42" depart="189" />
    <vehicle id="right_115" type="v1" route="r13" depart="190" />
    <vehicle id="up_116" type="v1" route="r42" depart="190" />
    <vehicle id="right_117" type="v1" route="r13" depart="191" />
    <vehicle id="right_118" type="v1" route="r13" depart="192" />
    <vehicle id="right_119" type="v1" route="r13" depart="193" />
    <vehicle id="up_120" type="v1" route="r42" depart="193" />
    <vehicle id="right_121" type="v1" route="r13" depart="194" />
    <vehicle id="right_122" type="v1" route="r13" depart="198" />
    <vehicle id="right_123" type="v1" route="r13" depart="199" />
    <vehicle id="right_124" type="v1" route="r13" depart="200" />
    <vehicle id="right_125" type="v1" route="r13" depart="203" />
    <vehicle id="right_126" type="v1" route="r13" depart="204" />
    <vehicle id="right_127" type="v1" route="r13" depart="205" />
    <vehicle id="right_128" type="v1" route="r13" depart="206" />
    <vehicle id="up_129" type="v1" route="r42" depart="206" />
    <vehicle id="right_130" type="v1" route="r13" depart="207" />
    <vehicle id="right_131" type="v1" route="r13" depart="208" />
    <vehicle id="right_132" type="v1" route="r13" depart="209" />
    <vehicle id="right_133" type="v1" route="r13" depart="210" />
    <vehicle id="right_134" type="v1" route="r13" depart="211" />
    <vehicle id="right_135" type="v1" route="r13" depart="212" />
    <vehicle id="right_136" type="v1" route="r13" depart="213" />
    <vehicle id="up_137" type="v1" route="r42" depart="213" />
    <vehicle id="right_138" type="v1" route="r13" depart="214" />
    <vehicle id="up_139" type="v1" route="r42" depart="214" />
    <vehicle id="right_140" type="v1" route="r13" depart="218" />
    <vehicle id="right_141" type="v1" route="r13" depart="219" />
    <vehicle id="up_142" type="v1" route="r42" depart="219" />
    <vehicle id="right_143" type="v1" route="r13" depart="220" />
    <vehicle id="right_144" type="v1" route="r13" depart="221" />
    <vehicle id="right_145" type="v1" route="r13" depart="222" />
    <vehicle id="right_146" type="v1" route="r13" depart="223" />
    <vehicle id="right_147" type="v1" route="r13" depart="224" />
    <vehicle id="up_148" type="v1" route="r42" depart="224" />
    <vehicle id="right_149" type="v1" route="r13" depart="225" />
    <vehicle id="up_150" type="v1" route="r42" depart="229" />
    <vehicle id="right_151" type="v1" route="r13" depart="232" />
    <vehicle id="right_152" type="v1" route="r13" depart="233" />
    <vehicle id="right_153" type="v1" route="r13" depart="234" />
    <vehicle id="right_154" type="v1" route="r13" depart="235" />
    <vehicle id="right_155" type="v1" route="r13" depart="236" />
    <vehicle id="up_156" type="v1" route="r42" depart="238" />
    <vehicle id="right_157" type="v1" route="r13" depart="239" />
    <vehicle id="right_158" type="v1" route="r13" depart="240" />
    <vehicle id="right_159" type="v1" route="r13" depart="241" />
    <vehicle id="right_160" type="v1" route="r13" depart="242" />
    <vehicle id="right_161" type="v1" route="r13" depart="243" />
    <vehicle id="right_162" type="v1" route="r13" depart="246" />
    <vehicle id="up_163" type="v1" route="r42" depart="247" />
    <vehicle id="right_164" type="v1" route="r13" depart="250" />
    <vehicle id="right_165" type="v1" route="r13" depart="251" />
    <vehicle id="up_166" type="v1" route="r42" depart="251" />
    <vehicle id="up_167" type="v1" route="r42" depart="254" />
    <vehicle id="right_168" type="v1" route="r13" depart="255" />
    <vehicle id="up_169" type="v1" route="r42" depart="255" />
    <vehicle id="right_170" type="v1" route="r13" depart="256" />
    <vehicle id="up_171" type="v1" route="r42" depart="256" />
    <vehicle id="right_172" type="v1" route="r13" depart="259" />
    <vehicle id="up_173" type="v1" route="r42" depart="260" />
    <vehicle id="right_174" type="v1" route="r13" depart="262" />
    <vehicle id="up_175" type="v1" route="r42" depart="268" />
    <vehicle id="right_176" type="v1" route="r13" depart="269" />
    <vehicle id="up_177" type="v1" route="r42" depart="269" />
    <vehicle id="right_178" type="v1" route="r13" depart="270" />
    <vehicle id="right_179" type="v1" route="r13" depart="273" />
    <vehicle id="right_180" type="v1" route="r13" depart="274" />
    <vehicle id="right_181" type="v1" route="r13" depart="276" />
    <vehicle id="right_182" type="v1" route="r13" depart="277" />
    <vehicle id="right_183" type="v1" route="r13" depart="278" />
    <vehicle id="right_184" type="v1" route="r13" depart="279" />
    <vehicle id="right_185" type="v1" route="r13" depart="280" />
    <vehicle id="up_186" type="v1" route="r42" depart="280" />
    <vehicle id="right_187" type="v1" route="r13" depart="281" />
    <vehicle id="up_188" type="v1" route="r42" depart="283" />
    <vehicle id="up_189" type="v1" route="r42" depart="284" />
    <vehicle id="right_190" type="v1" route="r13" depart="285" />
    <vehicle id="up_191" type="v1" route="r42" depart="288" />
    <vehicle id="right_192" type="v1" route="r13" depart="289" />
    <vehicle id="right_193" type="v1" route="r13" depart="291" />
    <vehicle id="up_194" type="v1" route="r42" depart="293" />
    <vehicle id="right_195" type="v1" route="r13" depart="294" />
    <vehicle id="up_196" type="v1" route="r42" depart="294" />
    <vehicle id="up_197" type="v1" route="r42" depart="299" />
    <vehicle id="right_198" type="v1" route="r13" depart="300" />
    <vehicle id="right_199" type="v1" route="r13" depart="303" />
    <vehicle id="right_200" type="v1" route="r13" depart="304" />
    <vehicle id="right_201" type="v1" route="r13" depart="305" />
    <vehicle id="right_202" type="v1" route="r13" depart="306" />
    <vehicle id="right_203" type="v1" route="r13" depart="307" />
    <vehicle id="up_204" type="v1" route="r42" depart="307" />
    <vehicle id="right_205" type="v1" route="r13" depart="311" />
    <vehicle id="right_206" type="v1" route="r13" depart="312" />
    <vehicle id="right_207" type="v1" route="r13" depart="314" />
    <vehicle id="right_208" type="v1" route="r13" depart="317" />
    <vehicle id="right_209" type="v1" route="r13" depart="318" />
    <vehicle id="up_210" type="v1" route="r42" depart="319" />
    <vehicle id="right_211" type="v1" route="r13" depart="324" />
    <vehicle id="right_212" type="v1" route="r13" depart="327" />
    <vehicle id="right_213" type="v1" route="r13" depart="332" />
    <vehicle id="up_214" type="v1" route="r42" depart="333" />
    <vehicle id="right_215" type="v1" route="r13" depart="335" />
    <vehicle id="right_216" type="v1" route="r13" depart="336" />
    <vehicle id="right_217" type="v1" route="r13" depart="337" />
    <vehicle id="right_218" type="v1" route="r13" depart="338" />
    <vehicle id="right_219" type="v1" route="r13" depart="339" />
    <vehicle id="up_220" type="v1" route="r42" depart="339" />
    <vehicle id="up_221" type="v1" route="r42" depart="340" />
    <vehicle id="up_222" type="v1" route="r42" depart="341" />
    <vehicle id="right_223" type="v1" route="r13" depart="342" />
    <vehicle id="up_224" type="v1" route="r42" depart="342" />
    <vehicle id="right_225" type="v1" route="r13" depart="343" />
    <vehicle id="right_226" type="v1" route="r13" depart="344" />
    <vehicle id="right_227" type="v1" route="r13" depart="345" />
    <vehicle id="up_228" type="v1" route="r42" depart="345" />
    <vehicle id="right_229" type="v1" route="r13" depart="346" />
    <vehicle id="right_230" type="v1" route="r13" depart="347" />
    <vehicle id="up_231" type="v1" route="r42" depart="348" />
    <vehicle id="right_232" type="v1" route="r13" depart="349" />
    <vehicle id="up_233" type="v1" route="r42" depart="350" />
    <vehicle id="right_234" type="v1" route="r13" depart="351" />
    <vehicle id="right_235" type="v1" route="r13" depart="357" />
    <vehicle id="right_236" type="v1" route="r13" depart="358" />
    <vehicle id="right_237" type="v1" route="r13" depart="359" />
    <vehicle id="up_238" type="v1" route="r42" depart="360" />
    <vehicle id="right_239" type="v1" route="r13" depart="364" />
    <vehicle id="up_240" type="v1" route="r42" depart="364" />
    <vehicle id="right_241" type="v1" route="r13" depart="365" />
    <vehicle id="up_242" type="v1" route="r42" depart="365" />
    <vehicle id="right_243" type="v1" route="r13" depart="366" />
    <vehicle id="up_244" type="v1" route="r42" depart="366" />
    <vehicle id="right_245" type="v1" route="r13" depart="367" />
    <vehicle id="up_246" type="v1" route="r42" depart="367" />
    <vehicle id="up_247" type="v1" route="r42" depart="375" />
    <vehicle id="right_248" type="v1" route="r13" depart="376" />
    <vehicle id="up_249" type="v1" route="r42" depart="376" />
    <vehicle id="right_250" type="v1" route="r13" depart="377" />
    <vehicle id="right_251" type="v1" route="r13" depart="379" />
    <vehicle id="right_252" type="v1" route="r13" depart="380" />
    <vehicle id="right_253" type="v1" route="r13" depart="381" />
    <vehicle id="right_254" type="v1" route="r13" depart="382" />
    <vehicle id="up_255" type="v1" route="r42" depart="384" />
    <vehicle id="right_256" type="v1" route="r13" depart="385" />
    <vehicle id="right_257" type="v1" route="r13" depart="387" />
    <vehicle id="up_258" type="v1" route="r42" depart="388" />
    <vehicle id="right_259" type="v1" route="r13" depart="389" />
    <vehicle id="up_260" type="v1" route="r42" depart="389" />
    <vehicle id="right_261" type="v1" route="r13" depart="391" />
    <vehicle id="right_262" type="v1" route="r13" depart="393" />
    <vehicle id="right_263" type="v1" route="r13" depart="394" />
    <vehicle id="right_264" type="v1" route="r13" depart="395" />
    <vehicle id="right_265" type="v1" route="r13" depart="396" />
    <vehicle id="right_266" type="v1" route="r13" depart="397" />
    <vehicle id="up_267" type="v1" route="r42" depart="397" />
    <vehicle id="right_268" type="v1" route="r13" depart="398" />
    <vehicle id="right_269" type="v1" route="r13" depart="399" />
    <vehicle id="right_270" type="v1" route="r13" depart="400" />
    <vehicle id="up_271" type="v1" route="r42" depart="400" />
    <vehicle id="right_272" type="v1" route="r13" depart="401" />
    <vehicle id="right_273" type="v1" route="r13" depart="402" />
    <vehicle id="right_274" type="v1" route="r13" depart="403" />
    <vehicle id="up_275" type="v1" route="r42" depart="405" />
    <vehicle id="right_276" type="v1" route="r13" depart="407" />
    <vehicle id="right_277" type="v1" route="r13" depart="408" />
    <vehicle id="right_278" type="v1" route="r13" depart="409" />
    <vehicle id="up_279" type="v1" route="r42" depart="409" />
    <vehicle id="right_280" type="v1" route="r13" depart="411" />
    <vehicle id="right_281" type="v1" route="r13" depart="412" />
    <vehicle id="right_282" type="v1" route="r13" depart="413" />
    <vehicle id="right_283" type="v1" route="r13" depart="414" />
    <vehicle id="right_284" type="v1" route="r13" depart="415" />
    <vehicle id="right_285" type="v1" route="r13" depart="416" />
    <vehicle id="right_286" type="v1" route="r13" depart="421" />
    <vehicle id="right_287" type="v1" route="r13" depart="422" />
    <vehicle id="up_288" type="v1" route="r42" depart="423" />
    <vehicle id="up_289" type="v1" route="r42" depart="424" />
    <vehicle id="right_290" type="v1" route="r13" depart="426" />
    <vehicle id="right_291" type="v1" route="r13" depart="429" />
    <vehicle id="right_292" type="v1" route="r13" depart="430" />
    <vehicle id="right_293" type="v1" route="r13" depart="431" />
    <vehicle id="right_294" type="v1" route="r13" depart="433" />
    <vehicle id="right_295" type="v1" route="r13" depart="435" />
    <vehicle id="up_296" type="v1" route="r42" depart="435" />
    <vehicle id="up_297" type="v1" route="r42" depart="436" />
    <vehicle id="right_298" type="v1" route="r13" depart="437" />
    <vehicle id="right_299" type="v1" route="r13" depart="438" />
    <vehicle id="up_300" type="v1" route="r42" depart="440" />
    <vehicle id="right_301" type="v1" route="r13" depart="441" />
    <vehicle id="up_302" type="v1" route="r42" depart="442" />
    <vehicle id="up_303" type="v1" route="r42" depart="447" />
    <vehicle id="right_304" type="v1" route="r13" depart="448" />
    <vehicle id="up_305" type="v1" route="r42" depart="448" />
    <vehicle id="up_306" type="v1" route="r42" depart="449" />
    <vehicle id="right_307" type="v1" route="r13" depart="450" />
    <vehicle id="right_308" type="v1" route="r13" depart="451" />
    <vehicle id="right_309" type="v1" route="r13" depart="452" />
    <vehicle id="right_310" type="v1" route="r13" depart="453" />
    <vehicle id="right_311" type="v1" route="r13" depart="455" />
    <vehicle id="up_312" type="v1" route="r42" depart="455" />
    <vehicle id="right_313" type="v1" route="r13" depart="456" />
    <vehicle id="right_314" type="v1" route="r13" depart="458" />
    <vehicle id="right_315" type="v1" route="r13" depart="459" />
    <vehicle id="right_316" type="v1" route="r13" depart="460" />
    <vehicle id="right_317" type="v1" route="r13" depart="461" />
    <vehicle id="up_318" type="v1" route="r42" depart="461" />
    <vehicle id="right_319" type="v1" route="r13" depart="462" />
    <vehicle id="up_320" type="v1" route="r42" depart="462" />
    <vehicle id="right_321" type="v1" route="r13" depart="463" />
    <vehicle id="right_322" type="v1" route="r13" depart="465" />
    <vehicle id="up_323" type="v1" route="r42" depart="465" />
    <vehicle id="right_324" type="v1" route="r13" depart="466" />
    <vehicle id="right_325" type="v1" route="r13" depart="467" />
    <vehicle id="right_326" type="v1" route="r13" depart="468" />
    <vehicle id="right_327" type="v1" route="r13" depart="469" />
    <vehicle id="right_328" type="v1" route="r13" depart="470" />
    <vehicle id="right_329" type="v1" route="r13" depart="471" />
    <vehicle id="right_330" type="v1" route="r13" depart="472" />
    <vehicle id="right_331" type="v1" route="r13" depart="473" />
    <vehicle id="right_332" type="v1" route="r13" depart="474" />
    <vehicle id="right_333" type="v1" route="r13" depart="475" />
    <vehicle id="right_334" type="v1" route="r13" depart="476" />
    <vehicle id="right_335" type="v1" route="r13" depart="477" />
    <vehicle id="right_336" type="v1" route="r13" depart="478" />
    <vehicle id="right_337" type="v1" route="r13" depart="479" />
    <vehicle id="up_338" type="v1" route="r42" depart="479" />
    <vehicle id="right_339" type="v1" route="r13" depart="480" />
    <vehicle id="up_340" type="v1" route="r42" depart="480" />
    <vehicle id="up_341" type="v1" route="r42" depart="481" />
    <vehicle id="up_342" type="v1" route="r42" depart="482" />
    <vehicle id="right_343" type="v1" route="r13" depart="483" />
    <vehicle id="up_344" type="v1" route="r42" depart="483" />
    <vehicle id="up_345" type="v1" route="r42" depart="486" />
    <vehicle id="right_346" type="v1" route="r13" depart="487" />
    <vehicle id="right_347" type="v1" route="r13" depart="489" />
    <vehicle id="right_348" type="v1" route="r13" depart="490" />
    <vehicle id="right_349" type="v1" route="r13" depart="491" />
    <vehicle id="right_350" type="v1" route="r13" depart="493" />
    <vehicle id="right_351" type="v1" route="r13" depart="494" />
    <vehicle id="right_352" type="v1" route="r13" depart="497" />
    <vehicle id="right_353" type="v1" route="r13" depart="498" />
    <vehicle id="right_354" type="v1" route="r13" depart="499" />
    <vehicle id="up_355" type="v1" route="r42" depart="499" />
    <vehicle id="right_356" type="v1" route="r13" depart="500" />
    <vehicle id="right_357" type="v1" route="r13" depart="501" />
    <vehicle id="up_358" type="v1" route="r42" depart="503" />
    <vehicle id="right_359" type="v1" route="r13" depart="504" />
    <vehicle id="right_360" type="v1" route="r13" depart="505" />
    <vehicle id="right_361" type="v1" route="r13" depart="510" />
    <vehicle id="right_362" type="v1" route="r13" depart="512" />
    <vehicle id="right_363" type="v1" route="r13" depart="514" />
    <vehicle id="right_364" type="v1" route="r13" depart="515" />
    <vehicle id="up_365" type="v1" route="r42" depart="516" />
    <vehicle id="right_366" type="v1" route="r13" depart="520" />
    <vehicle id="right_367" type="v1" route="r13" depart="522" />
    <vehicle id="right_368" type="v1" route="r13" depart="523" />
    <vehicle id="right_369" type="v1" route="r13" depart="524" />
    <vehicle id="right_370" type="v1" route="r13" depart="525" />
    <vehicle id="up_371" type="v1" route="r42" depart="528" />
    <vehicle id="right_372" type="v1" route="r13" depart="529" />
    <vehicle id="right_373" type="v1" route="r13" depart="530" />
    <vehicle id="right_374" type="v1" route="r13" depart="531" />
    <vehicle id="up_375" type="v1" route="r42" depart="531" />
    <vehicle id="up_376" type="v1" route="r42" depart="532" />
    <vehicle id="up_377" type="v1" route="r42" depart="533" />
    <vehicle id="right_378" type="v1" route="r13" depart="534" />
    <vehicle id="right_379" type="v1" route="r13" depart="535" />
    <vehicle id="right_380" type="v1" route="r13" depart="538" />
    <vehicle id="up_381" type="v1" route="r42" depart="538" />
    <vehicle id="right_382" type="v1" route="r13" depart="539" />
    <vehicle id="right_383" type="v1" route="r13" depart="540" />
    <vehicle id="right_384" type="v1" route="r13" depart="541" />
    <vehicle id="right_385" type="v1" route="r13" depart="542" />
    <vehicle id="right_386" type="v1" route="r13" depart="543" />
    <vehicle id="right_387" type="v1" route="r13" depart="544" />
    <vehicle id="right_388" type="v1" route="r13" depart="545" />
    <vehicle id="right_389" type="v1" route="r13" depart="547" />
    <vehicle id="up_390" type="v1" route="r42" depart="547" />
    <vehicle id="right_391" type="v1" route="r13" depart="549" />
    <vehicle id="up_392" type="v1" route="r42" depart="549" />
    <vehicle id="right_393" type="v1" route="r13" depart="551" />
    <vehicle id="right_394" type="v1" route="r13" depart="552" />
    <vehicle id="right_395" type="v1" route="r13" depart="553" />
    <vehicle id="right_396" type="v1" route="r13" depart="554" />
    <vehicle id="right_397" type="v1" route="r13" depart="555" />
    <vehicle id="right_398" type="v1" route="r13" depart="556" />
    <vehicle id="up_399" type="v1" route="r42" depart="556" />
    <vehicle id="right_400" type="v1" route="r13" depart="557" />
    <vehicle id="up_401" type="v1" route="r42" depart="557" />
    <vehicle id="up_402" type="v1" route="r42" depart="558" />
    <vehicle id="right_403" type="v1" route="r13" depart="560" />
    <vehicle id="right_404" type="v1" route="r13" depart="563" />
    <vehicle id="right_405" type="v1" route="r13" depart="564" />
    <vehicle id="right_406" type="v1" route="r13" depart="567" />
    <vehicle id="up_407" type="v1" route="r42" depart="569" />
    <vehicle id="right_408" type="v1" route="r13" depart="571" />
    <vehicle id="up_409" type="v1" route="r42" depart="573" />
    <vehicle id="right_410" type="v1" route="r13" depart="575" />
    <vehicle id="right_411" type="v1" route="r13" depart="576" />
    <vehicle id="up_412" type="v1" route="r42" depart="576" />
    <vehicle id="right_413" type="v1" route="r13" depart="577" />
    <vehicle id="up_414" type="v1" route="r42" depart="578" />
    <vehicle id="right_415" type="v1" route="r13" depart="579" />
    <vehicle id="right_416" type="v1" route="r13" depart="580" />
    <vehicle id="right_417" type="v1" route="r13" depart="581" />
    <vehicle id="right_418" type="v1" route="r13" depart="582" />
    <vehicle id="right_419" type="v1" route="r13" depart="583" />
    <vehicle id="right_420" type="v1" route="r13" depart="584" />
    <vehicle id="right_421" type="v1" route="r13" depart="585" />
    <vehicle id="right_422" type="v1" route="r13" depart="586" />
    <vehicle id="right_423" type="v1" route="r13" depart="587" />
    <vehicle id="up_424" type="v1" route="r42" depart="587" />
    <vehicle id="right_425" type="v1" route="r13" depart="588" />
    <vehicle id="right_426" type="v1" route="r13" depart="589" />
    <vehicle id="right_427" type="v1" route="r13" depart="590" />
    <vehicle id="right_428" type="v1" route="r13" depart="591" />
    <vehicle id="right_429" type="v1" route="r13" depart="592" />
    <vehicle id="right_430" type="v1" route="r13" depart="593" />
    <vehicle id="right_431" type="v1" route="r13" depart="594" />
    <vehicle id="right_432" type="v1" route="r13" depart="595" />
    <vehicle id="right_433" type="v1" route="r13" depart="596" />
    <vehicle id="right_434" type="v1" route="r13" depart="597" />
    <vehicle id="right_435" type="v1" route="r13" depart="598" />
    <vehicle id="up_436" type="v1" route="r42" depart="598" />
    <vehicle id="right_437" type="v1" route="r13" depart="600" />
    <vehicle id="up_438" type="v1" route="r42" depart="600" />
    <vehicle id="right_439" type="v1" route="r13" depart="601" />
    <vehicle id="up_440" type="v1" route="r42" depart="601" />
    <vehicle id="right_441" type="v1" route="r13" depart="602" />
    <vehicle id="right_442" type="v1" route="r13" depart="603" />
    <vehicle id="right_443" type="v1" route="r13" depart="604" />
    <vehicle id="right_444" type="v1" route="r13" depart="605" />
    <vehicle id="right_445" type="v1" route="r13" depart="606" />
    <vehicle id="right_446" type="v1" route="r13" depart="610" />
    <vehicle id="up_447" type="v1" route="r42" depart="613" />
    <vehicle id="right_448" type="v1" route="r13" depart="615" />
    <vehicle id="up_449" type="v1" route="r42" depart="615" />
    <vehicle id="right_450" type="v1" route="r13" depart="616" />
    <vehicle id="right_451" type="v1" route="r13" depart="617" />
    <vehicle id="right_452" type="v1" route="r13" depart="618" />
    <vehicle id="up_453" type="v1" route="r42" depart="618" />
    <vehicle id="right_454" type="v1" route="r13" depart="619" />
    <vehicle id="right_455" type="v1" route="r13" depart="620" />
    <vehicle id="right_456" type="v1" route="r13" depart="621" />
    <vehicle id="right_457" type="v1" route="r13" depart="623" />