<?xml version="1.0" encoding="UTF-8"?>

<!-- generated on 2022-06-28 14:52:46 by Eclipse SUMO netedit Version 1.10.0
<configuration xmlns:xsi="http://www.w3.org/2001/XMLSchema-instance" xsi:noNamespaceSchemaLocation="http://sumo.dlr.de/xsd/netconvertConfiguration.xsd">

    <input>
        <sumo-net-file value="/Users/YingqingChen/Documents/GitHub/TLC/TLC_sumo/Veberod_intersection_pedestrian.net.xml"/>
    </input>

    <output>
        <output-file value="/Users/YingqingChen/Documents/GitHub/TLC/TLC_sumo/Veberod_intersection_pedestrian.net.xml"/>
        <output.street-names value="true"/>
    </output>

    <processing>
        <geometry.min-radius.fix.railways value="false"/>
        <geometry.max-grade.fix value="false"/>
        <offset.disable-normalization value="true"/>
        <lefthand value="false"/>
    </processing>

    <junctions>
        <no-internal-links value="false"/>
        <no-turnarounds value="true"/>
        <junctions.corner-detail value="5"/>
        <junctions.limit-turn-speed value="5.5"/>
        <rectangular-lane-cut value="false"/>
    </junctions>

    <pedestrian>
        <walkingareas value="false"/>
    </pedestrian>

    <netedit>
        <route-files value="/Users/YingqingChen/Documents/GitHub/TLC/TLC_sumo/Veberod_intersection_pedestrian.rou.xml"/>
    </netedit>

    <report>
        <aggregate-warnings value="5"/>
    </report>

</configuration>
-->

<routes xmlns:xsi="http://www.w3.org/2001/XMLSchema-instance" xsi:noNamespaceSchemaLocation="http://sumo.dlr.de/xsd/routes_file.xsd">
    <flow id="flow_1" begin="0.00" from="96027913#0" to="311389510#1" end="3600.00" number="396"/>
    <flow id="flow_0" begin="0.00" from="-355113043#1" to="-34992983#1" end="3600.00" number="450"/>
</routes>
