<routes>
        <vType id="v1" accel="2.6" decel="4.5" sigma="0.5" length="5" minGap="1" maxSpeed="55" guiShape="passenger"/>

        <route id="r13" edges="96027913#0 96027913#2 30186293 311389510#1" />
        <route id="r42" edges="-355113043#1 -24626686#2 -24626686#1 -34992983#3 -34992983#1" />
    <vehicle id="right_0" type="v1" route="r13" depart="1" />
    <vehicle id="up_1" type="v1" route="r42" depart="1" />
    <vehicle id="right_2" type="v1" route="r13" depart="5" />
    <vehicle id="right_3" type="v1" route="r13" depart="6" />
    <vehicle id="right_4" type="v1" route="r13" depart="10" />
    <vehicle id="right_5" type="v1" route="r13" depart="17" />
    <vehicle id="up_6" type="v1" route="r42" depart="20" />
    <vehicle id="up_7" type="v1" route="r42" depart="21" />
    <vehicle id="up_8" type="v1" route="r42" depart="22" />
    <vehicle id="right_9" type="v1" route="r13" depart="25" />
    <vehicle id="right_10" type="v1" route="r13" depart="26" />
    <vehicle id="right_11" type="v1" route="r13" depart="31" />
    <vehicle id="right_12" type="v1" route="r13" depart="32" />
    <vehicle id="up_13" type="v1" route="r42" depart="33" />
    <vehicle id="right_14" type="v1" route="r13" depart="36" />
    <vehicle id="up_15" type="v1" route="r42" depart="42" />
    <vehicle id="up_16" type="v1" route="r42" depart="45" />
    <vehicle id="right_17" type="v1" route="r13" depart="47" />
    <vehicle id="up_18" type="v1" route="r42" depart="51" />
    <vehicle id="right_19" type="v1" route="r13" depart="54" />
    <vehicle id="up_20" type="v1" route="r42" depart="58" />
    <vehicle id="right_21" type="v1" route="r13" depart="60" />
    <vehicle id="right_22" type="v1" route="r13" depart="61" />
    <vehicle id="up_23" type="v1" route="r42" depart="68" />
    <vehicle id="right_24" type="v1" route="r13" depart="69" />
    <vehicle id="up_25" type="v1" route="r42" depart="69" />
    <vehicle id="right_26" type="v1" route="r13" depart="70" />
    <vehicle id="right_27" type="v1" route="r13" depart="72" />
    <vehicle id="up_28" type="v1" route="r42" depart="72" />
    <vehicle id="right_29" type="v1" route="r13" depart="73" />
    <vehicle id="right_30" type="v1" route="r13" depart="77" />
    <vehicle id="right_31" type="v1" route="r13" depart="78" />
    <vehicle id="right_32" type="v1" route="r13" depart="82" />
    <vehicle id="up_33" type="v1" route="r42" depart="82" />
    <vehicle id="right_34" type="v1" route="r13" depart="86" />
    <vehicle id="right_35" type="v1" route="r13" depart="87" />
    <vehicle id="right_36" type="v1" route="r13" depart="88" />
    <vehicle id="right_37" type="v1" route="r13" depart="90" />
    <vehicle id="right_38" type="v1" route="r13" depart="91" />
    <vehicle id="up_39" type="v1" route="r42" depart="92" />
    <vehicle id="up_40" type="v1" route="r42" depart="96" />
    <vehicle id="up_41" type="v1" route="r42" depart="103" />
    <vehicle id="right_42" type="v1" route="r13" depart="104" />
    <vehicle id="right_43" type="v1" route="r13" depart="105" />
    <vehicle id="right_44" type="v1" route="r13" depart="110" />
    <vehicle id="up_45" type="v1" route="r42" depart="110" />
    <vehicle id="up_46" type="v1" route="r42" depart="115" />
    <vehicle id="right_47" type="v1" route="r13" depart="116" />
    <vehicle id="right_48" type="v1" route="r13" depart="117" />
    <vehicle id="right_49" type="v1" route="r13" depart="118" />
    <vehicle id="right_50" type="v1" route="r13" depart="119" />
    <vehicle id="right_51" type="v1" route="r13" depart="122" />
    <vehicle id="up_52" type="v1" route="r42" depart="122" />
    <vehicle id="right_53" type="v1" route="r13" depart="123" />
    <vehicle id="up_54" type="v1" route="r42" depart="123" />
    <vehicle id="right_55" type="v1" route="r13" depart="124" />
    <vehicle id="right_56" type="v1" route="r13" depart="125" />
    <vehicle id="right_57" type="v1" route="r13" depart="134" />
    <vehicle id="right_58" type="v1" route="r13" depart="136" />
    <vehicle id="right_59" type="v1" route="r13" depart="137" />
    <vehicle id="right_60" type="v1" route="r13" depart="143" />
    <vehicle id="right_61" type="v1" route="r13" depart="147" />
    <vehicle id="right_62" type="v1" route="r13" depart="148" />
    <vehicle id="right_63" type="v1" route="r13" depart="149" />
    <vehicle id="up_64" type="v1" route="r42" depart="156" />
    <vehicle id="right_65" type="v1" route="r13" depart="158" />
    <vehicle id="right_66" type="v1" route="r13" depart="159" />
    <vehicle id="right_67" type="v1" route="r13" depart="160" />
    <vehicle id="up_68" type="v1" route="r42" depart="164" />
    <vehicle id="right_69" type="v1" route="r13" depart="174" />
    <vehicle id="up_70" type="v1" route="r42" depart="174" />
    <vehicle id="right_71" type="v1" route="r13" depart="176" />
    <vehicle id="right_72" type="v1" route="r13" depart="177" />
    <vehicle id="right_73" type="v1" route="r13" depart="179" />
    <vehicle id="right_74" type="v1" route="r13" depart="182" />
    <vehicle id="up_75" type="v1" route="r42" depart="183" />
    <vehicle id="right_76" type="v1" route="r13" depart="185" />
    <vehicle id="right_77" type="v1" route="r13" depart="189" />
    <vehicle id="right_78" type="v1" route="r13" depart="192" />
    <vehicle id="up_79" type="v1" route="r42" depart="194" />
    <vehicle id="up_80" type="v1" route="r42" depart="195" />
    <vehicle id="right_81" type="v1" route="r13" depart="199" />
    <vehicle id="right_82" type="v1" route="r13" depart="200" />
    <vehicle id="right_83" type="v1" route="r13" depart="202" />
    <vehicle id="right_84" type="v1" route="r13" depart="206" />
    <vehicle id="right_85" type="v1" route="r13" depart="207" />
    <vehicle id="right_86" type="v1" route="r13" depart="208" />
    <vehicle id="up_87" type="v1" route="r42" depart="214" />
    <vehicle id="right_88" type="v1" route="r13" depart="217" />
    <vehicle id="right_89" type="v1" route="r13" depart="218" />
    <vehicle id="right_90" type="v1" route="r13" depart="220" />
    <vehicle id="right_91" type="v1" route="r13" depart="221" />
    <vehicle id="right_92" type="v1" route="r13" depart="230" />
    <vehicle id="right_93" type="v1" route="r13" depart="232" />
    <vehicle id="up_94" type="v1" route="r42" depart="236" />
    <vehicle id="up_95" type="v1" route="r42" depart="238" />
    <vehicle id="right_96" type="v1" route="r13" depart="239" />
    <vehicle id="right_97" type="v1" route="r13" depart="242" />
    <vehicle id="right_98" type="v1" route="r13" depart="247" />
    <vehicle id="right_99" type="v1" route="r13" depart="249" />
    <vehicle id="right_100" type="v1" route="r13" depart="252" />
    <vehicle id="right_101" type="v1" route="r13" depart="255" />
    <vehicle id="up_102" type="v1" route="r42" depart="257" />
    <vehicle id="right_103" type="v1" route="r13" depart="259" />
    <vehicle id="right_104" type="v1" route="r13" depart="260" />
    <vehicle id="right_105" type="v1" route="r13" depart="262" />
    <vehicle id="right_106" type="v1" route="r13" depart="263" />
    <vehicle id="right_107" type="v1" route="r13" depart="264" />
    <vehicle id="right_108" type="v1" route="r13" depart="271" />
    <vehicle id="right_109" type="v1" route="r13" depart="272" />
    <vehicle id="right_110" type="v1" route="r13" depart="273" />
    <vehicle id="right_111" type="v1" route="r13" depart="274" />
    <vehicle id="right_112" type="v1" route="r13" depart="275" />
    <vehicle id="up_113" type="v1" route="r42" depart="275" />
    <vehicle id="right_114" type="v1" route="r13" depart="279" />
    <vehicle id="right_115" type="v1" route="r13" depart="280" />
    <vehicle id="up_116" type="v1" route="r42" depart="280" />
    <vehicle id="right_117" type="v1" route="r13" depart="284" />
    <vehicle id="right_118" type="v1" route="r13" depart="285" />
    <vehicle id="right_119" type="v1" route="r13" depart="286" />
    <vehicle id="right_120" type="v1" route="r13" depart="289" />
    <vehicle id="up_121" type="v1" route="r42" depart="289" />
    <vehicle id="right_122" type="v1" route="r13" depart="293" />
    <vehicle id="right_123" type="v1" route="r13" depart="296" />
    <vehicle id="right_124" type="v1" route="r13" depart="297" />
    <vehicle id="right_125" type="v1" route="r13" depart="298" />
    <vehicle id="up_126" type="v1" route="r42" depart="305" />
    <vehicle id="right_127" type="v1" route="r13" depart="308" />
    <vehicle id="right_128" type="v1" route="r13" depart="311" />
    <vehicle id="right_129" type="v1" route="r13" depart="312" />
    <vehicle id="up_130" type="v1" route="r42" depart="316" />
    <vehicle id="up_131" type="v1" route="r42" depart="317" />
    <vehicle id="right_132" type="v1" route="r13" depart="320" />
    <vehicle id="up_133" type="v1" route="r42" depart="322" />
    <vehicle id="right_134" type="v1" route="r13" depart="329" />
    <vehicle id="right_135" type="v1" route="r13" depart="333" />
    <vehicle id="right_136" type="v1" route="r13" depart="334" />
    <vehicle id="right_137" type="v1" route="r13" depart="336" />
    <vehicle id="up_138" type="v1" route="r42" depart="337" />
    <vehicle id="right_139" type="v1" route="r13" depart="338" />
    <vehicle id="right_140" type="v1" route="r13" depart="341" />
    <vehicle id="up_141" type="v1" route="r42" depart="341" />
    <vehicle id="right_142" type="v1" route="r13" depart="346" />
    <vehicle id="right_143" type="v1" route="r13" depart="347" />
    <vehicle id="right_144" type="v1" route="r13" depart="348" />
    <vehicle id="right_145" type="v1" route="r13" depart="351" />
    <vehicle id="right_146" type="v1" route="r13" depart="353" />
    <vehicle id="up_147" type="v1" route="r42" depart="354" />
    <vehicle id="right_148" type="v1" route="r13" depart="362" />
    <vehicle id="right_149" type="v1" route="r13" depart="364" />
    <vehicle id="right_150" type="v1" route="r13" depart="365" />
    <vehicle id="right_151" type="v1" route="r13" depart="367" />
    <vehicle id="right_152" type="v1" route="r13" depart="377" />
    <vehicle id="right_153" type="v1" route="r13" depart="378" />
    <vehicle id="up_154" type="v1" route="r42" depart="380" />
    <vehicle id="up_155" type="v1" route="r42" depart="383" />
    <vehicle id="right_156" type="v1" route="r13" depart="385" />
    <vehicle id="right_157" type="v1" route="r13" depart="387" />
    <vehicle id="right_158" type="v1" route="r13" depart="389" />
    <vehicle id="right_159" type="v1" route="r13" depart="390" />
    <vehicle id="right_160" type="v1" route="r13" depart="391" />
    <vehicle id="right_161" type="v1" route="r13" depart="393" />
    <vehicle id="right_162" type="v1" route="r13" depart="397" />
    <vehicle id="right_163" type="v1" route="r13" depart="398" />
    <vehicle id="right_164" type="v1" route="r13" depart="400" />
    <vehicle id="right_165" type="v1" route="r13" depart="401" />
    <vehicle id="up_166" type="v1" route="r42" depart="405" />
    <vehicle id="right_167" type="v1" route="r13" depart="407" />
    <vehicle id="up_168" type="v1" route="r42" depart="407" />
    <vehicle id="right_169" type="v1" route="r13" depart="408" />
    <vehicle id="right_170" type="v1" route="r13" depart="409" />
    <vehicle id="up_171" type="v1" route="r42" depart="416" />
    <vehicle id="up_172" type="v1" route="r42" depart="417" />
    <vehicle id="up_173" type="v1" route="r42" depart="419" />
    <vehicle id="right_174" type="v1" route="r13" depart="421" />
    <vehicle id="up_175" type="v1" route="r42" depart="422" />
    <vehicle id="up_176" type="v1" route="r42" depart="428" />
    <vehicle id="up_177" type="v1" route="r42" depart="430" />
    <vehicle id="right_178" type="v1" route="r13" depart="431" />
    <vehicle id="up_179" type="v1" route="r42" depart="431" />
    <vehicle id="up_180" type="v1" route="r42" depart="434" />
    <vehicle id="up_181" type="v1" route="r42" depart="439" />
    <vehicle id="up_182" type="v1" route="r42" depart="444" />
    <vehicle id="right_183" type="v1" route="r13" depart="447" />
    <vehicle id="up_184" type="v1" route="r42" depart="447" />
    <vehicle id="right_185" type="v1" route="r13" depart="451" />
    <vehicle id="right_186" type="v1" route="r13" depart="456" />
    <vehicle id="right_187" type="v1" route="r13" depart="459" />
    <vehicle id="right_188" type="v1" route="r13" depart="460" />
    <vehicle id="right_189" type="v1" route="r13" depart="463" />
    <vehicle id="right_190" type="v1" route="r13" depart="464" />
    <vehicle id="up_191" type="v1" route="r42" depart="464" />
    <vehicle id="right_192" type="v1" route="r13" depart="465" />
    <vehicle id="right_193" type="v1" route="r13" depart="467" />
    <vehicle id="right_194" type="v1" route="r13" depart="470" />
    <vehicle id="up_195" type="v1" route="r42" depart="470" />
    <vehicle id="right_196" type="v1" route="r13" depart="471" />
    <vehicle id="right_197" type="v1" route="r13" depart="474" />
    <vehicle id="up_198" type="v1" route="r42" depart="475" />
    <vehicle id="right_199" type="v1" route="r13" depart="476" />
    <vehicle id="up_200" type="v1" route="r42" depart="477" />
    <vehicle id="right_201" type="v1" route="r13" depart="484" />
    <vehicle id="right_202" type="v1" route="r13" depart="486" />
    <vehicle id="right_203" type="v1" route="r13" depart="488" />
    <vehicle id="up_204" type="v1" route="r42" depart="489" />
    <vehicle id="right_205" type="v1" route="r13" depart="490" />
    <vehicle id="right_206" type="v1" route="r13" depart="496" />
    <vehicle id="right_207" type="v1" route="r13" depart="503" />
    <vehicle id="up_208" type="v1" route="r42" depart="503" />
    <vehicle id="right_209" type="v1" route="r13" depart="509" />
    <vehicle id="up_210" type="v1" route="r42" depart="509" />
    <vehicle id="right_211" type="v1" route="r13" depart="510" />
    <vehicle id="up_212" type="v1" route="r42" depart="511" />
    <vehicle id="up_213" type="v1" route="r42" depart="513" />
    <vehicle id="right_214" type="v1" route="r13" depart="515" />
    <vehicle id="right_215" type="v1" route="r13" depart="517" />
    <vehicle id="right_216" type="v1" route="r13" depart="522" />
    <vehicle id="right_217" type="v1" route="r13" depart="523" />
    <vehicle id="right_218" type="v1" route="r13" depart="527" />
    <vehicle id="right_219" type="v1" route="r13" depart="529" />
    <vehicle id="right_220" type="v1" route="r13" depart="530" />
    <vehicle id="right_221" type="v1" route="r13" depart="531" />
    <vehicle id="up_222" type="v1" route="r42" depart="531" />
    <vehicle id="up_223" type="v1" route="r42" depart="536" />
    <vehicle id="right_224" type="v1" route="r13" depart="543" />
    <vehicle id="up_225" type="v1" route="r42" depart="546" />
    <vehicle id="right_226" type="v1" route="r13" depart="549" />
    <vehicle id="up_227" type="v1" route="r42" depart="550" />
    <vehicle id="right_228" type="v1" route="r13" depart="551" />
    <vehicle id="right_229" type="v1" route="r13" depart="558" />
    <vehicle id="up_230" type="v1" route="r42" depart="568" />
    <vehicle id="right_231" type="v1" route="r13" depart="573" />
    <vehicle id="right_232" type="v1" route="r13" depart="574" />
    <vehicle id="right_233" type="v1" route="r13" depart="585" />
    <vehicle id="right_234" type="v1" route="r13" depart="586" />
    <vehicle id="right_235" type="v1" route="r13" depart="587" />
    <vehicle id="up_236" type="v1" route="r42" depart="587" />
    <vehicle id="right_237" type="v1" route="r13" depart="588" />
    <vehicle id="right_238" type="v1" route="r13" depart="589" />
    <vehicle id="right_239" type="v1" route="r13" depart="590" />
    <vehicle id="right_240" type="v1" route="r13" depart="591" />
    <vehicle id="up_241" type="v1" route="r42" depart="593" />
    <vehicle id="right_242" type="v1" route="r13" depart="594" />
    <vehicle id="right_243" type="v1" route="r13" depart="595" />
    <vehicle id="right_244" type="v1" route="r13" depart="596" />
    <vehicle id="right_245" type="v1" route="r13" depart="602" />
    <vehicle id="up_246" type="v1" route="r42" depart="603" />
    <vehicle id="right_247" type="v1" route="r13" depart="605" />
    <vehicle id="right_248" type="v1" route="r13" depart="606" />
    <vehicle id="right_249" type="v1" route="r13" depart="608" />
    <vehicle id="right_250" type="v1" route="r13" depart="610" />
    <vehicle id="up_251" type="v1" route="r42" depart="611" />
    <vehicle id="right_252" type="v1" route="r13" depart="616" />
    <vehicle id="right_253" type="v1" route="r13" depart="620" />
    <vehicle id="up_254" type="v1" route="r42" depart="623" />
    <vehicle id="right_255" type="v1" route="r13" depart="624" />
    <vehicle id="right_256" type="v1" route="r13" depart="625" />
    <vehicle id="right_257" type="v1" route="r13" depart="626" />
    <vehicle id="up_258" type="v1" route="r42" depart="626" />
    <vehicle id="right_259" type="v1" route="r13" depart="629" />
    <vehicle id="right_260" type="v1" route="r13" depart="631" />
    <vehicle id="right_261" type="v1" route="r13" depart="632" />
    <vehicle id="up_262" type="v1" route="r42" depart="633" />
    <vehicle id="up_263" type="v1" route="r42" depart="635" />
    <vehicle id="up_264" type="v1" route="r42" depart="638" />
    <vehicle id="right_265" type="v1" route="r13" depart="639" />
    <vehicle id="up_266" type="v1" route="r42" depart="639" />
    <vehicle id="up_267" type="v1" route="r42" depart="640" />
    <vehicle id="right_268" type="v1" route="r13" depart="641" />
    <vehicle id="right_269" type="v1" route="r13" depart="644" />
    <vehicle id="right_270" type="v1" route="r13" depart="647" />
    <vehicle id="right_271" type="v1" route="r13" depart="648" />
    <vehicle id="right_272" type="v1" route="r13" depart="649" />
    <vehicle id="up_273" type="v1" route="r42" depart="656" />
    <vehicle id="right_274" type="v1" route="r13" depart="659" />
    <vehicle id="right_275" type="v1" route="r13" depart="660" />
    <vehicle id="right_276" type="v1" route="r13" depart="664" />
    <vehicle id="right_277" type="v1" route="r13" depart="665" />
    <vehicle id="up_278" type="v1" route="r42" depart="665" />
    <vehicle id="right_279" type="v1" route="r13" depart="666" />
    <vehicle id="right_280" type="v1" route="r13" depart="667" />
    <vehicle id="right_281" type="v1" route="r13" depart="668" />
    <vehicle id="right_282" type="v1" route="r13" depart="669" />
    <vehicle id="up_283" type="v1" route="r42" depart="669" />
    <vehicle id="right_284" type="v1" route="r13" depart="670" />
    <vehicle id="up_285" type="v1" route="r42" depart="671" />
    <vehicle id="up_286" type="v1" route="r42" depart="672" />
    <vehicle id="right_287" type="v1" route="r13" depart="673" />
    <vehicle id="right_288" type="v1" route="r13" depart="674" />
    <vehicle id="up_289" type="v1" route="r42" depart="676" />
    <vehicle id="right_290" type="v1" route="r13" depart="680" />
    <vehicle id="up_291" type="v1" route="r42" depart="681" />
    <vehicle id="up_292" type="v1" route="r42" depart="683" />
    <vehicle id="up_293" type="v1" route="r42" depart="690" />
    <vehicle id="right_294" type="v1" route="r13" depart="693" />
    <vehicle id="right_295" type="v1" route="r13" depart="694" />
    <vehicle id="right_296" type="v1" route="r13" depart="695" />
    <vehicle id="right_297" type="v1" route="r13" depart="698" />
    <vehicle id="right_298" type="v1" route="r13" depart="700" />
    <vehicle id="right_299" type="v1" route="r13" depart="709" />
    <vehicle id="up_300" type="v1" route="r42" depart="711" />
    <vehicle id="right_301" type="v1" route="r13" depart="712" />
    <vehicle id="right_302" type="v1" route="r13" depart="716" />
    <vehicle id="right_303" type="v1" route="r13" depart="718" />
    <vehicle id="right_304" type="v1" route="r13" depart="719" />
    <vehicle id="up_305" type="v1" route="r42" depart="722" />
    <vehicle id="up_306" type="v1" route="r42" depart="725" />
    <vehicle id="right_307" type="v1" route="r13" depart="729" />
    <vehicle id="up_308" type="v1" route="r42" depart="729" />
    <vehicle id="right_309" type="v1" route="r13" depart="730" />
    <vehicle id="right_310" type="v1" route="r13" depart="735" />
    <vehicle id="right_311" type="v1" route="r13" depart="736" />
    <vehicle id="up_312" type="v1" route="r42" depart="736" />
    <vehicle id="right_313" type="v1" route="r13" depart="737" />
    <vehicle id="right_314" type="v1" route="r13" depart="740" />
    <vehicle id="right_315" type="v1" route="r13" depart="741" />
    <vehicle id="up_316" type="v1" route="r42" depart="745" />
    <vehicle id="up_317" type="v1" route="r42" depart="746" />
    <vehicle id="right_318" type="v1" route="r13" depart="748" />
    <vehicle id="right_319" type="v1" route="r13" depart="749" />
    <vehicle id="right_320" type="v1" route="r13" depart="750" />
    <vehicle id="up_321" type="v1" route="r42" depart="750" />
    <vehicle id="right_322" type="v1" route="r13" depart="751" />
    <vehicle id="up_323" type="v1" route="r42" depart="751" />
    <vehicle id="up_324" type="v1" route="r42" depart="755" />
    <vehicle id="right_325" type="v1" route="r13" depart="757" />
    <vehicle id="right_326" type="v1" route="r13" depart="758" />
    <vehicle id="right_327" type="v1" route="r13" depart="765" />
    <vehicle id="right_328" type="v1" route="r13" depart="767" />
    <vehicle id="right_329" type="v1" route="r13" depart="768" />
    <vehicle id="right_330" type="v1" route="r13" depart="771" />
    <vehicle id="up_331" type="v1" route="r42" depart="772" />
    <vehicle id="right_332" type="v1" route="r13" depart="775" />
    <vehicle id="right_333" type="v1" route="r13" depart="776" />
    <vehicle id="up_334" type="v1" route="r42" depart="776" />
    <vehicle id="right_335" type="v1" route="r13" depart="777" />
    <vehicle id="right_336" type="v1" route="r13" depart="784" />
    <vehicle id="up_337" type="v1" route="r42" depart="785" />
    <vehicle id="right_338" type="v1" route="r13" depart="788" />
    <vehicle id="right_339" type="v1" route="r13" depart="789" />
    <vehicle id="up_340" type="v1" route="r42" depart="790" />
    <vehicle id="right_341" type="v1" route="r13" depart="791" />
    <vehicle id="right_342" type="v1" route="r13" depart="793" />
    <vehicle id="up_343" type="v1" route="r42" depart="796" />
    <vehicle id="up_344" type="v1" route="r42" depart="799" />
    <vehicle id="right_345" type="v1" route="r13" depart="801" />
    <vehicle id="right_346" type="v1" route="r13" depart="802" />
    <vehicle id="right_347" type="v1" route="r13" depart="803" />
    <vehicle id="right_348" type="v1" route="r13" depart="806" />
    <vehicle id="right_349" type="v1" route="r13" depart="808" />
    <vehicle id="up_350" type="v1" route="r42" depart="811" />
    <vehicle id="up_351" type="v1" route="r42" depart="812" />
    <vehicle id="right_352" type="v1" route="r13" depart="813" />
    <vehicle id="right_353" type="v1" route="r13" depart="815" />
    <vehicle id="right_354" type="v1" route="r13" depart="817" />
    <vehicle id="up_355" type="v1" route="r42" depart="818" />
    <vehicle id="right_356" type="v1" route="r13" depart="822" />
    <vehicle id="right_357" type="v1" route="r13" depart="823" />
    <vehicle id="up_358" type="v1" route="r42" depart="825" />
    <vehicle id="up_359" type="v1" route="r42" depart="826" />
    <vehicle id="right_360" type="v1" route="r13" depart="828" />
    <vehicle id="up_361" type="v1" route="r42" depart="829" />
    <vehicle id="up_362" type="v1" route="r42" depart="835" />
    <vehicle id="up_363" type="v1" route="r42" depart="836" />
    <vehicle id="right_364" type="v1" route="r13" depart="839" />
    <vehicle id="up_365" type="v1" route="r42" depart="840" />
    <vehicle id="right_366" type="v1" route="r13" depart="841" />
    <vehicle id="right_367" type="v1" route="r13" depart="842" />
    <vehicle id="right_368" type="v1" route="r13" depart="844" />
    <vehicle id="right_369" type="v1" route="r13" depart="845" />
    <vehicle id="up_370" type="v1" route="r42" depart="847" />
    <vehicle id="up_371" type="v1" route="r42" depart="850" />
    <vehicle id="right_372" type="v1" route="r13" depart="851" />
    <vehicle id="up_373" type="v1" route="r42" depart="854" />
    <vehicle id="right_374" type="v1" route="r13" depart="855" />
    <vehicle id="up_375" type="v1" route="r42" depart="855" />
    <vehicle id="right_376" type="v1" route="r13" depart="856" />
    <vehicle id="right_377" type="v1" route="r13" depart="857" />
    <vehicle id="up_378" type="v1" route="r42" depart="857" />
    <vehicle id="right_379" type="v1" route="r13" depart="858" />
    <vehicle id="up_380" type="v1" route="r42" depart="859" />
    <vehicle id="up_381" type="v1" route="r42" depart="860" />
    <vehicle id="right_382" type="v1" route="r13" depart="863" />
    <vehicle id="right_383" type="v1" route="r13" depart="867" />
    <vehicle id="right_384" type="v1" route="r13" depart="870" />
    <vehicle id="right_385" type="v1" route="r13" depart="871" />
    <vehicle id="right_386" type="v1" route="r13" depart="872" />
    <vehicle id="right_387" type="v1" route="r13" depart="874" />
    <vehicle id="up_388" type="v1" route="r42" depart="874" />
    <vehicle id="up_389" type="v1" route="r42" depart="876" />
    <vehicle id="right_390" type="v1" route="r13" depart="878" />
    <vehicle id="right_391" type="v1" route="r13" depart="880" />
    <vehicle id="right_392" type="v1" route="r13" depart="888" />
    <vehicle id="right_393" type="v1" route="r13" depart="889" />
    <vehicle id="up_394" type="v1" route="r42" depart="890" />
    <vehicle id="up_395" type="v1" route="r42" depart="891" />
    <vehicle id="up_396" type="v1" route="r42" depart="896" />
    <vehicle id="up_397" type="v1" route="r42" depart="897" />
    <vehicle id="up_398" type="v1" route="r42" depart="898" />
    <vehicle id="right_399" type="v1" route="r13" depart="902" />
    <vehicle id="right_400" type="v1" route="r13" depart="907" />
    <vehicle id="right_401" type="v1" route="r13" depart="910" />
    <vehicle id="up_402" type="v1" route="r42" depart="910" />
    <vehicle id="up_403" type="v1" route="r42" depart="912" />
    <vehicle id="right_404" type="v1" route="r13" depart="921" />
    <vehicle id="right_405" type="v1" route="r13" depart="923" />
    <vehicle id="right_406" type="v1" route="r13" depart="925" />
    <vehicle id="up_407" type="v1" route="r42" depart="925" />
    <vehicle id="up_408" type="v1" route="r42" depart="926" />
    <vehicle id="up_409" type="v1" route="r42" depart="928" />
    <vehicle id="up_410" type="v1" route="r42" depart="929" />
    <vehicle id="right_411" type="v1" route="r13" depart="931" />
    <vehicle id="right_412" type="v1" route="r13" depart="935" />
    <vehicle id="up_413" type="v1" route="r42" depart="935" />
    <vehicle id="up_414" type="v1" route="r42" depart="939" />
    <vehicle id="up_415" type="v1" route="r42" depart="942" />
    <vehicle id="up_416" type="v1" route="r42" depart="947" />
    <vehicle id="right_417" type="v1" route="r13" depart="948" />
    <vehicle id="up_418" type="v1" route="r42" depart="961" />
    <vehicle id="up_419" type="v1" route="r42" depart="962" />
    <vehicle id="right_420" type="v1" route="r13" depart="963" />
    <vehicle id="right_421" type="v1" route="r13" depart="969" />
    <vehicle id="right_422" type="v1" route="r13" depart="970" />
    <vehicle id="right_423" type="v1" route="r13" depart="975" />
    <vehicle id="right_424" type="v1" route="r13" depart="982" />
    <vehicle id="right_425" type="v1" route="r13" depart="988" />
    <vehicle id="up_426" type="v1" route="r42" depart="988" />
    <vehicle id="up_427" type="v1" route="r42" depart="992" />
    <vehicle id="up_428" type="v1" route="r42" depart="994" />
    <vehicle id="up_429" type="v1" route="r42" depart="995" />
    <vehicle id="up_430" type="v1" route="r42" depart="996" />
    <vehicle id="right_431" type="v1" route="r13" depart="998" />
    <vehicle id="up_432" type="v1" route="r42" depart="1001" />
    <vehicle id="right_433" type="v1" route="r13" depart="1002" />
    <vehicle id="right_434" type="v1" route="r13" depart="1007" />
    <vehicle id="right_435" type="v1" route="r13" depart="1008" />
    <vehicle id="up_436" type="v1" route="r42" depart="1013" />
    <vehicle id="up_437" type="v1" route="r42" depart="1017" />
    <vehicle id="right_438" type="v1" route="r13" depart="1019" />
    <vehicle id="right_439" type="v1" route="r13" depart="1021" />
    <vehicle id="right_440" type="v1" route="r13" depart="1034" />
    <vehicle id="right_441" type="v1" route="r13" depart="1036" />
    <vehicle id="right_442" type="v1" route="r13" depart="1040" />
    <vehicle id="right_443" type="v1" route="r13" depart="1041" />
    <vehicle id="right_444" type="v1" route="r13" depart="1046" />
    <vehicle id="right_445" type="v1" route="r13" depart="1047" />
    <vehicle id="right_446" type="v1" route="r13" depart="1049" />
    <vehicle id="up_447" type="v1" route="r42" depart="1053" />
    <vehicle id="right_448" type="v1" route="r13" depart="1058" />
    <vehicle id="right_449" type="v1" route="r13" depart="1059" />
    <vehicle id="right_450" type="v1" route="r13" depart="1060" />
    <vehicle id="up_451" type="v1" route="r42" depart="1063" />
    <vehicle id="right_452" type="v1" route="r13" depart="1072" />
    <vehicle id="right_453" type="v1" route="r13" depart="1073" />
    <vehicle id="right_454" type="v1" route="r13" depart="1076" />
    <vehicle id="right_455" type="v1" route="r13" depart="1081" />
    <vehicle id="right_456" type="v1" route="r13" depart="1082" />
    <vehicle id="right_457" type="v1" route="r13" depart="1086" />