<?xml version="1.0" encoding="UTF-8"?>

<!-- generated on 2022-07-20 09:52:38 by Eclipse SUMO netedit Version 1.10.0
<configuration xmlns:xsi="http://www.w3.org/2001/XMLSchema-instance" xsi:noNamespaceSchemaLocation="http://sumo.dlr.de/xsd/netconvertConfiguration.xsd">

    <input>
        <sumo-net-file value="/Users/YingqingChen/Documents/GitHub/TLC/TLC_sumo/Veberod_intersection_pedestrian.net.xml"/>
    </input>

    <output>
        <output-file value="/Users/YingqingChen/Documents/GitHub/TLC/TLC_sumo/Veberod_intersection_pedestrian.net.xml"/>
        <output.street-names value="true"/>
    </output>

    <processing>
        <geometry.min-radius.fix.railways value="false"/>
        <geometry.max-grade.fix value="false"/>
        <offset.disable-normalization value="true"/>
        <lefthand value="false"/>
    </processing>

    <junctions>
        <no-internal-links value="false"/>
        <no-turnarounds value="true"/>
        <junctions.corner-detail value="5"/>
        <junctions.limit-turn-speed value="5.5"/>
        <rectangular-lane-cut value="false"/>
    </junctions>

    <pedestrian>
        <walkingareas value="false"/>
    </pedestrian>

    <report>
        <aggregate-warnings value="5"/>
    </report>

</configuration>
-->

<net version="1.9" junctionCornerDetail="5" limitTurnSpeed="5.50" xmlns:xsi="http://www.w3.org/2001/XMLSchema-instance" xsi:noNamespaceSchemaLocation="http://sumo.dlr.de/xsd/net_file.xsd">

    <location netOffset="-404883.49,-6165499.85" convBoundary="97.26,734.65,333.00,1010.61" origBoundary="13.484374,55.626116,13.508575,55.640159" projParameter="+proj=utm +zone=33 +ellps=WGS84 +datum=WGS84 +units=m +no_defs"/>

    <type id="highway.bridleway" priority="1" numLanes="1" speed="2.78" allow="pedestrian" oneway="1" width="2.00"/>
    <type id="highway.bus_guideway" priority="1" numLanes="1" speed="27.78" allow="bus" oneway="1"/>
    <type id="highway.cycleway" priority="1" numLanes="1" speed="8.33" allow="bicycle" oneway="1" width="1.00"/>
    <type id="highway.footway" priority="1" numLanes="1" speed="2.78" allow="pedestrian" oneway="1" width="2.00"/>
    <type id="highway.ford" priority="1" numLanes="1" speed="2.78" allow="army" oneway="1"/>
    <type id="highway.living_street" priority="2" numLanes="1" speed="2.78" disallow="tram rail_urban rail rail_electric rail_fast ship" oneway="1"/>
    <type id="highway.motorway" priority="14" numLanes="2" speed="39.44" allow="private emergency authority army vip passenger hov taxi bus coach delivery truck trailer motorcycle evehicle custom1 custom2" oneway="1"/>
    <type id="highway.motorway_link" priority="9" numLanes="1" speed="22.22" allow="private emergency authority army vip passenger hov taxi bus coach delivery truck trailer motorcycle evehicle custom1 custom2" oneway="1"/>
    <type id="highway.path" priority="1" numLanes="1" speed="2.78" allow="pedestrian bicycle" oneway="1" width="2.00"/>
    <type id="highway.pedestrian" priority="1" numLanes="1" speed="2.78" allow="pedestrian" oneway="1" width="2.00"/>
    <type id="highway.primary" priority="12" numLanes="2" speed="27.78" disallow="tram rail_urban rail rail_electric rail_fast ship" oneway="1"/>
    <type id="highway.primary_link" priority="7" numLanes="1" speed="22.22" disallow="tram rail_urban rail rail_electric rail_fast ship" oneway="1"/>
    <type id="highway.raceway" priority="15" numLanes="2" speed="83.33" allow="vip" oneway="1"/>
    <type id="highway.residential" priority="3" numLanes="1" speed="13.89" disallow="tram rail_urban rail rail_electric rail_fast ship" oneway="1"/>
    <type id="highway.secondary" priority="11" numLanes="1" speed="27.78" disallow="tram rail_urban rail rail_electric rail_fast ship" oneway="1"/>
    <type id="highway.secondary_link" priority="6" numLanes="1" speed="22.22" disallow="tram rail_urban rail rail_electric rail_fast ship" oneway="1"/>
    <type id="highway.service" priority="1" numLanes="1" speed="5.56" allow="pedestrian delivery bicycle" oneway="1"/>
    <type id="highway.stairs" priority="1" numLanes="1" speed="1.39" allow="pedestrian" oneway="1" width="2.00"/>
    <type id="highway.step" priority="1" numLanes="1" speed="1.39" allow="pedestrian" oneway="1" width="2.00"/>
    <type id="highway.steps" priority="1" numLanes="1" speed="1.39" allow="pedestrian" oneway="1" width="2.00"/>
    <type id="highway.tertiary" priority="10" numLanes="1" speed="22.22" disallow="tram rail_urban rail rail_electric rail_fast ship" oneway="1"/>
    <type id="highway.tertiary_link" priority="5" numLanes="1" speed="22.22" disallow="tram rail_urban rail rail_electric rail_fast ship" oneway="1"/>
    <type id="highway.track" priority="1" numLanes="1" speed="5.56" allow="pedestrian motorcycle moped bicycle" oneway="1"/>
    <type id="highway.trunk" priority="13" numLanes="2" speed="27.78" disallow="pedestrian bicycle tram rail_urban rail rail_electric rail_fast ship" oneway="1"/>
    <type id="highway.trunk_link" priority="8" numLanes="1" speed="22.22" disallow="pedestrian bicycle tram rail_urban rail rail_electric rail_fast ship" oneway="1"/>
    <type id="highway.unclassified" priority="4" numLanes="1" speed="13.89" disallow="tram rail_urban rail rail_electric rail_fast ship" oneway="1"/>
    <type id="highway.unsurfaced" priority="1" numLanes="1" speed="8.33" disallow="tram rail_urban rail rail_electric rail_fast ship" oneway="1"/>
    <type id="railway.highspeed" priority="21" numLanes="1" speed="69.44" allow="rail_fast" oneway="1"/>
    <type id="railway.light_rail" priority="19" numLanes="1" speed="27.78" allow="rail_urban" oneway="1"/>
    <type id="railway.preserved" priority="16" numLanes="1" speed="27.78" allow="rail" oneway="1"/>
    <type id="railway.rail" priority="20" numLanes="1" speed="44.44" allow="rail" oneway="1"/>
    <type id="railway.subway" priority="18" numLanes="1" speed="27.78" allow="rail_urban" oneway="1"/>
    <type id="railway.tram" priority="17" numLanes="1" speed="13.89" allow="tram" oneway="1"/>

    <edge id=":1112561414_0" function="internal">
        <lane id=":1112561414_0_0" index="0" disallow="tram rail_urban rail rail_electric rail_fast ship" speed="27.78" length="0.31" shape="101.01,1009.86 100.93,1009.82 100.87,1009.80 100.82,1009.76 100.74,1009.71"/>
    </edge>
    <edge id=":1112561419_0" function="internal">
        <lane id=":1112561419_0_0" index="0" disallow="pedestrian tram rail_urban rail rail_electric rail_fast ship" speed="12.70" length="6.76" shape="108.51,996.24 108.36,998.04 109.04,999.24 110.02,1000.46 110.77,1002.32"/>
    </edge>
    <edge id=":1112561419_1" function="internal">
        <lane id=":1112561419_1_0" index="0" disallow="pedestrian tram rail_urban rail rail_electric rail_fast ship" speed="3.65" length="4.67" shape="108.51,996.24 107.38,997.14 106.50,997.28 105.85,996.66 105.45,995.27"/>
    </edge>
    <edge id=":1112561419_2" function="internal">
        <lane id=":1112561419_2_0" index="0" disallow="pedestrian tram rail_urban rail rail_electric rail_fast ship" speed="8.86" length="6.13" shape="100.06,998.19 105.45,995.27"/>
    </edge>
    <edge id=":1112561419_3" function="internal">
        <lane id=":1112561419_3_0" index="0" disallow="tram rail_urban rail rail_electric rail_fast ship" speed="7.24" length="14.54" shape="100.06,998.19 104.05,996.42 107.17,996.52 109.41,998.49 110.77,1002.32"/>
    </edge>
    <edge id=":1112561419_w0" function="walkingarea">
        <lane id=":1112561419_w0_0" index="0" allow="pedestrian" speed="1.00" length="8.66" width="3.20" shape="103.93,994.79 102.02,994.18 99.23,996.82 100.89,999.55 109.20,1002.63 112.35,1002.02 111.94,997.32 110.03,996.72"/>
    </edge>
    <edge id=":267701934_0" function="internal">
        <lane id=":267701934_0_0" index="0" disallow="pedestrian tram rail_urban rail rail_electric rail_fast ship" speed="19.45" length="12.03" shape="184.12,796.58 182.71,793.30 181.76,791.04 180.98,788.73 180.06,785.28"/>
    </edge>
    <edge id=":267701934_1" function="internal">
        <lane id=":267701934_1_0" index="0" disallow="pedestrian tram rail_urban rail rail_electric rail_fast ship" speed="7.29" length="6.22" shape="184.12,796.58 182.90,791.95 183.30,790.57"/>
    </edge>
    <edge id=":267701934_2" function="internal">
        <lane id=":267701934_2_0" index="0" disallow="pedestrian tram rail_urban rail rail_electric rail_fast ship" speed="3.65" length="2.34" shape="184.12,796.58 184.40,795.17 184.98,794.49"/>
    </edge>
    <edge id=":267701934_9" function="internal">
        <lane id=":267701934_9_0" index="0" disallow="pedestrian tram rail_urban rail rail_electric rail_fast ship" speed="7.29" length="10.14" shape="183.30,790.57 183.78,788.88 186.75,787.40 191.81,787.48"/>
    </edge>
    <edge id=":267701934_10" function="internal">
        <lane id=":267701934_10_0" index="0" disallow="pedestrian tram rail_urban rail rail_electric rail_fast ship" speed="3.65" length="2.34" shape="184.98,794.49 185.88,794.55 187.08,795.35"/>
    </edge>
    <edge id=":267701934_3" function="internal">
        <lane id=":267701934_3_0" index="0" disallow="pedestrian tram rail_urban rail rail_electric rail_fast ship" speed="5.57" length="8.95" shape="191.68,790.70 188.78,790.62 187.05,791.36 186.48,792.94 187.08,795.35"/>
    </edge>
    <edge id=":267701934_4" function="internal">
        <lane id=":267701934_4_0" index="0" disallow="pedestrian tram rail_urban rail rail_electric rail_fast ship" speed="9.15" length="13.37" shape="191.68,790.70 186.96,789.79 183.45,788.58 181.15,787.08 180.06,785.28"/>
    </edge>
    <edge id=":267701934_5" function="internal">
        <lane id=":267701934_5_0" index="0" disallow="tram rail_urban rail rail_electric rail_fast ship" speed="3.66" length="4.70" shape="191.68,790.70 190.51,789.84 190.14,789.02 190.58,788.24 191.81,787.48"/>
    </edge>
    <edge id=":267701934_6" function="internal">
        <lane id=":267701934_6_0" index="0" disallow="pedestrian tram rail_urban rail rail_electric rail_fast ship" speed="7.74" length="9.36" shape="183.17,784.52 183.88,785.38 185.55,786.16 188.20,786.86 191.81,787.48"/>
    </edge>
    <edge id=":267701934_7" function="internal">
        <lane id=":267701934_7_0" index="0" disallow="pedestrian tram rail_urban rail rail_electric rail_fast ship" speed="19.45" length="11.53" shape="183.17,784.52 184.05,787.82 184.81,790.04 185.72,792.20 187.08,795.35"/>
    </edge>
    <edge id=":267701934_8" function="internal">
        <lane id=":267701934_8_0" index="0" disallow="pedestrian tram rail_urban rail rail_electric rail_fast ship" speed="3.65" length="2.34" shape="183.17,784.52 182.68,785.88 182.00,786.46"/>
    </edge>
    <edge id=":267701934_11" function="internal">
        <lane id=":267701934_11_0" index="0" disallow="pedestrian tram rail_urban rail rail_electric rail_fast ship" speed="3.65" length="2.34" shape="182.00,786.46 181.13,786.26 180.06,785.28"/>
    </edge>
    <edge id=":267701934_w0" function="walkingarea">
        <lane id=":267701934_w0_0" index="0" allow="pedestrian" speed="1.00" length="12.41" width="2.00" shape="178.51,785.66 176.57,786.14 180.80,797.97 182.65,797.20 181.62,794.79 180.85,793.02 180.24,791.54 179.71,790.04 179.16,788.19"/>
    </edge>
    <edge id=":267701934_w1" function="walkingarea">
        <lane id=":267701934_w1_0" index="0" allow="pedestrian" speed="1.00" length="7.00" width="3.20" shape="188.55,794.73 190.40,793.96 191.45,792.28 191.91,789.11 191.59,789.07 192.04,785.90 186.67,783.66 184.73,784.14 185.32,786.46 185.83,788.16 186.33,789.54 186.89,790.89 187.61,792.52"/>
    </edge>
    <edge id=":267701936_0" function="internal">
        <lane id=":267701936_0_0" index="0" disallow="pedestrian tram rail_urban rail rail_electric rail_fast ship" speed="20.84" length="17.08" shape="224.18,862.13 221.47,857.85 219.52,854.98 217.38,852.25 214.10,848.39"/>
    </edge>
    <edge id=":267701936_1" function="internal">
        <lane id=":267701936_1_0" index="0" disallow="pedestrian tram rail_urban rail rail_electric rail_fast ship" speed="27.78" length="17.31" shape="227.05,848.30 216.02,861.64"/>
    </edge>
    <edge id=":267701936_2" function="internal">
        <lane id=":267701936_2_0" index="0" disallow="pedestrian tram rail_urban rail rail_electric rail_fast ship" speed="20.84" length="17.55" shape="216.53,846.30 219.90,850.26 222.10,853.07 224.10,856.03 226.89,860.42"/>
    </edge>
    <edge id=":267701936_3" function="internal">
        <lane id=":267701936_3_0" index="0" disallow="pedestrian tram rail_urban rail rail_electric rail_fast ship" speed="27.78" length="17.36" shape="213.54,859.62 224.60,846.24"/>
    </edge>
    <edge id=":267701936_c0" function="crossing" crossingEdges="-34992983#3 34992983#2">
        <lane id=":267701936_c0_0" index="0" allow="pedestrian" speed="1.00" length="6.40" width="4.00" shape="227.17,857.88 221.76,861.30"/>
    </edge>
    <edge id=":267701936_c1" function="crossing" crossingEdges="30186293 -30186293">
        <lane id=":267701936_c1_0" index="0" allow="pedestrian" speed="1.00" length="6.40" width="4.00" shape="222.09,846.74 226.99,850.86"/>
    </edge>
    <edge id=":267701936_c2" function="crossing" crossingEdges="24626686#0 -24626686#1">
        <lane id=":267701936_c2_0" index="0" allow="pedestrian" speed="1.00" length="6.40" width="4.00" shape="214.20,850.95 219.04,846.77"/>
    </edge>
    <edge id=":267701936_c3" function="crossing" crossingEdges="-96027913#3 96027913#2">
        <lane id=":267701936_c3_0" index="0" allow="pedestrian" speed="1.00" length="6.40" width="4.00" shape="218.52,861.10 213.56,857.06"/>
    </edge>
    <edge id=":267701936_w0" function="walkingarea">
        <lane id=":267701936_w0_0" index="0" allow="pedestrian" speed="1.00" length="3.35" width="4.00" shape="217.26,862.65 218.81,863.92 221.14,864.06 222.83,862.99 221.97,861.86 221.08,861.15 220.16,860.88 219.22,861.04 218.25,861.63"/>
    </edge>
    <edge id=":267701936_w1" function="walkingarea">
        <lane id=":267701936_w1_0" index="0" allow="pedestrian" speed="1.00" length="6.19" width="4.00" shape="228.24,859.57 229.93,858.50 229.81,850.62 228.28,849.33 227.24,850.84 226.62,852.43 226.41,854.10 226.61,855.84 227.22,857.67"/>
    </edge>
    <edge id=":267701936_w2" function="walkingarea">
        <lane id=":267701936_w2_0" index="0" allow="pedestrian" speed="1.00" length="3.34" width="4.00" shape="223.37,845.21 221.84,843.93 219.25,843.94 217.74,845.25 218.68,846.17 219.63,846.71 220.57,846.89 221.50,846.70 222.44,846.14"/>
    </edge>
    <edge id=":267701936_w3" function="walkingarea">
        <lane id=":267701936_w3_0" index="0" allow="pedestrian" speed="1.00" length="5.53" width="4.00" shape="212.89,849.43 211.38,850.74 210.75,857.34 212.30,858.61 213.46,856.94 214.20,855.34 214.51,853.78 214.40,852.28 213.86,850.83"/>
    </edge>
    <edge id=":380550404_0" function="internal">
        <lane id=":380550404_0_0" index="0" disallow="pedestrian tram rail_urban rail rail_electric rail_fast ship" speed="3.65" length="4.67" shape="332.47,776.72 333.87,777.08 334.51,777.70 334.40,778.59 333.53,779.74"/>
    </edge>
    <edge id=":380550404_w0" function="walkingarea">
        <lane id=":380550404_w0_0" index="0" allow="pedestrian" speed="1.00" length="5.80" width="3.20" shape="334.05,781.25 334.71,783.14 331.95,775.21 333.00,778.23"/>
    </edge>
    <edge id=":410431626_0" function="internal">
        <lane id=":410431626_0_0" index="0" disallow="pedestrian tram rail_urban rail rail_electric rail_fast ship" speed="13.89" length="0.20" shape="240.47,893.43 240.38,893.25"/>
    </edge>
    <edge id=":410431626_1" function="internal">
        <lane id=":410431626_1_0" index="0" disallow="pedestrian tram rail_urban rail rail_electric rail_fast ship" speed="3.65" length="2.34" shape="240.47,893.43 240.68,892.00 241.23,891.30"/>
    </edge>
    <edge id=":410431626_3" function="internal">
        <lane id=":410431626_3_0" index="0" disallow="pedestrian tram rail_urban rail rail_electric rail_fast ship" speed="3.65" length="2.34" shape="241.23,891.30 242.12,891.32 243.36,892.06"/>
    </edge>
    <edge id=":410431626_2" function="internal">
        <lane id=":410431626_2_0" index="0" disallow="pedestrian tram rail_urban rail rail_electric rail_fast ship" speed="13.89" length="0.30" shape="243.23,891.79 243.36,892.06"/>
    </edge>
    <edge id=":410431626_w0" function="walkingarea">
        <lane id=":410431626_w0_0" index="0" allow="pedestrian" speed="1.00" length="0.12" width="2.00" shape="238.96,893.98 237.18,894.89 237.21,894.97 239.02,894.11"/>
    </edge>
    <edge id=":410431626_w1" function="walkingarea">
        <lane id=":410431626_w1_0" index="0" allow="pedestrian" speed="1.00" length="0.38" width="2.00" shape="244.81,891.37 246.61,890.52 246.43,890.15 244.65,891.06"/>
    </edge>
    <edge id=":469404170_w0" function="walkingarea">
        <lane id=":469404170_w0_0" index="0" allow="pedestrian" speed="1.00" length="8.40" width="2.00" shape="286.18,998.52 284.33,999.29 293.93,995.29 292.08,996.06"/>
    </edge>
    <edge id=":469417306_0" function="internal">
        <lane id=":469417306_0_0" index="0" disallow="pedestrian tram rail_urban rail rail_electric rail_fast ship" speed="27.78" length="0.28" shape="172.66,913.52 172.48,913.73"/>
    </edge>
    <edge id=":469417306_1" function="internal">
        <lane id=":469417306_1_0" index="0" disallow="pedestrian tram rail_urban rail rail_electric rail_fast ship" speed="27.78" length="0.31" shape="170.01,911.69 170.21,911.46"/>
    </edge>
    <edge id=":469417306_2" function="internal">
        <lane id=":469417306_2_0" index="0" disallow="pedestrian tram rail_urban rail rail_electric rail_fast ship" speed="3.65" length="2.34" shape="170.01,911.69 171.39,911.28 172.27,911.48"/>
    </edge>
    <edge id=":469417306_3" function="internal">
        <lane id=":469417306_3_0" index="0" disallow="pedestrian tram rail_urban rail rail_electric rail_fast ship" speed="3.65" length="2.34" shape="172.27,911.48 172.63,912.30 172.48,913.73"/>
    </edge>
    <edge id=":469417306_w0" function="walkingarea">
        <lane id=":469417306_w0_0" index="0" allow="pedestrian" speed="1.00" length="0.25" width="2.00" shape="173.71,914.75 175.25,916.03 175.41,915.84 173.88,914.55"/>
    </edge>
    <edge id=":469417306_w1" function="walkingarea">
        <lane id=":469417306_w1_0" index="0" allow="pedestrian" speed="1.00" length="0.34" width="2.00" shape="168.99,910.42 167.46,909.13 167.24,909.40 168.78,910.68"/>
    </edge>
    <edge id=":469422058_0" function="internal">
        <lane id=":469422058_0_0" index="0" disallow="pedestrian tram rail_urban rail rail_electric rail_fast ship" speed="3.65" length="4.67" shape="171.97,734.87 172.59,733.57 173.33,733.07 174.18,733.35 175.13,734.43"/>
    </edge>
    <edge id=":469422058_w0" function="walkingarea">
        <lane id=":469422058_w0_0" index="0" allow="pedestrian" speed="1.00" length="8.40" width="2.00" shape="176.72,734.21 178.70,733.94 168.40,735.36 170.38,735.09"/>
    </edge>
    <edge id=":469961520_0" function="internal">
        <lane id=":469961520_0_0" index="0" disallow="pedestrian tram rail_urban rail rail_electric rail_fast ship" speed="27.78" length="0.23" shape="205.38,833.96 205.26,833.76"/>
    </edge>
    <edge id=":469961520_1" function="internal">
        <lane id=":469961520_1_0" index="0" disallow="pedestrian tram rail_urban rail rail_electric rail_fast ship" speed="27.78" length="0.31" shape="208.02,832.13 208.17,832.40"/>
    </edge>
    <edge id=":469961520_w0" function="walkingarea">
        <lane id=":469961520_w0_0" index="0" allow="pedestrian" speed="1.00" length="0.17" width="2.00" shape="203.89,834.58 202.17,835.60 202.24,835.72 203.99,834.74"/>
    </edge>
    <edge id=":469961520_w1" function="walkingarea">
        <lane id=":469961520_w1_0" index="0" allow="pedestrian" speed="1.00" length="0.37" width="2.00" shape="209.57,831.61 211.31,830.63 211.11,830.29 209.39,831.31"/>
    </edge>
    <edge id=":cluster_1112561393_420767834_469421912_0" function="internal">
        <lane id=":cluster_1112561393_420767834_469421912_0_0" index="0" disallow="pedestrian tram rail_urban rail rail_electric rail_fast ship" speed="27.78" length="28.52" shape="279.86,799.91 273.48,803.33 267.76,807.31 262.33,811.75 256.84,816.55"/>
    </edge>
    <edge id=":cluster_1112561393_420767834_469421912_1" function="internal">
        <lane id=":cluster_1112561393_420767834_469421912_1_0" index="0" disallow="pedestrian tram rail_urban rail rail_electric rail_fast ship" speed="18.57" length="9.82" shape="279.86,799.91 272.41,803.12 270.81,803.72"/>
    </edge>
    <edge id=":cluster_1112561393_420767834_469421912_2" function="internal">
        <lane id=":cluster_1112561393_420767834_469421912_2_0" index="0" disallow="pedestrian tram rail_urban rail rail_electric rail_fast ship" speed="3.65" length="2.17" shape="279.86,799.91 278.44,799.67 277.87,799.22"/>
    </edge>
    <edge id=":cluster_1112561393_420767834_469421912_8" function="internal">
        <lane id=":cluster_1112561393_420767834_469421912_8_0" index="0" disallow="pedestrian tram rail_urban rail rail_electric rail_fast ship" speed="18.57" length="19.05" shape="270.81,803.72 264.52,806.06 257.45,807.93 252.43,807.99"/>
    </edge>
    <edge id=":cluster_1112561393_420767834_469421912_9" function="internal">
        <lane id=":cluster_1112561393_420767834_469421912_9_0" index="0" disallow="pedestrian tram rail_urban rail rail_electric rail_fast ship" speed="3.65" length="2.51" shape="277.87,799.22 277.74,799.11 277.78,798.22 278.54,796.99"/>
    </edge>
    <edge id=":cluster_1112561393_420767834_469421912_3" function="internal">
        <lane id=":cluster_1112561393_420767834_469421912_3_0" index="0" disallow="tram rail_urban rail rail_electric rail_fast ship" speed="17.84" length="26.61" shape="253.37,804.93 258.68,804.61 266.04,802.29 273.36,799.31 278.54,796.99"/>
    </edge>
    <edge id=":cluster_1112561393_420767834_469421912_4" function="internal">
        <lane id=":cluster_1112561393_420767834_469421912_4_0" index="0" disallow="pedestrian tram rail_urban rail rail_electric rail_fast ship" speed="7.34" length="16.73" shape="253.37,804.93 258.22,807.10 260.42,809.76 259.96,812.91 256.84,816.55"/>
    </edge>
    <edge id=":cluster_1112561393_420767834_469421912_5" function="internal">
        <lane id=":cluster_1112561393_420767834_469421912_5_0" index="0" disallow="tram rail_urban rail rail_electric rail_fast ship" speed="3.65" length="4.67" shape="253.37,804.93 254.28,806.05 254.43,806.93 253.81,807.58 252.43,807.99"/>
    </edge>
    <edge id=":cluster_1112561393_420767834_469421912_6" function="internal">
        <lane id=":cluster_1112561393_420767834_469421912_6_0" index="0" disallow="pedestrian tram rail_urban rail rail_electric rail_fast ship" speed="5.57" length="9.01" shape="254.73,814.14 256.31,812.25 256.45,810.60 255.16,809.18 252.43,807.99"/>
    </edge>
    <edge id=":cluster_1112561393_420767834_469421912_7" function="internal">
        <lane id=":cluster_1112561393_420767834_469421912_7_0" index="0" disallow="pedestrian tram rail_urban rail rail_electric rail_fast ship" speed="27.78" length="29.39" shape="254.73,814.14 260.99,808.97 267.75,803.87 273.96,799.62 278.54,796.99"/>
    </edge>
    <edge id=":cluster_1112561393_420767834_469421912_w0" function="walkingarea">
        <lane id=":cluster_1112561393_420767834_469421912_w0_0" index="0" allow="pedestrian" speed="1.00" length="27.65" width="2.00" shape="257.89,817.75 259.21,819.26 281.35,803.18 280.52,801.36 275.16,803.94 271.34,806.14 268.38,808.28 265.61,810.70 262.34,813.75"/>
    </edge>
    <edge id=":cluster_1112561393_420767834_469421912_w1" function="walkingarea">
        <lane id=":cluster_1112561393_420767834_469421912_w1_0" index="0" allow="pedestrian" speed="1.00" length="16.52" width="3.20" shape="279.20,798.45 277.88,795.54 253.85,803.40 252.90,806.46 252.91,806.46 251.96,809.52 252.36,811.43 253.68,812.93 258.48,808.93 262.24,806.24 265.57,804.35 269.10,802.75 273.44,800.96"/>
    </edge>

    <edge id="-24626686#1" from="469961520" to="267701936" name="Dörrödsvägen" priority="3" type="highway.secondary" shape="206.71,833.06 213.61,845.36 216.02,848.16 220.61,853.48">
        <lane id="-24626686#1_0" index="0" allow="pedestrian" speed="27.78" length="16.00" width="2.00" shape="210.44,831.12 217.07,842.94 218.49,844.60">
            <param key="origId" value="24626686"/>
        </lane>
        <lane id="-24626686#1_1" index="1" disallow="pedestrian tram rail_urban rail rail_electric rail_fast ship" speed="27.78" length="16.00" shape="208.17,832.40 214.93,844.44 216.53,846.30">
            <param key="origId" value="24626686"/>
        </lane>
        <param key="ref" value="102"/>
    </edge>
    <edge id="-24626686#2" from="267701934" to="469961520" name="Dörrödsvägen" priority="3" type="highway.secondary" shape="182.53,788.62 187.58,800.70 195.44,814.06 206.71,833.06">
        <lane id="-24626686#2_0" index="0" allow="pedestrian" speed="27.78" length="42.18" width="2.00" shape="189.48,794.34 191.34,798.82 199.06,811.92 210.25,830.80">
            <param key="origId" value="24626686"/>
        </lane>
        <lane id="-24626686#2_1" index="1" disallow="pedestrian tram rail_urban rail rail_electric rail_fast ship" speed="27.78" length="42.18" shape="187.08,795.35 189.01,799.98 196.82,813.25 208.02,832.13">
            <param key="origId" value="24626686"/>
        </lane>
        <param key="ref" value="102"/>
    </edge>
    <edge id="-30186293" from="cluster_1112561393_420767834_469421912" to="267701936" name="Sjöbovägen" priority="11" type="highway.secondary" shape="262.54,809.44 250.38,820.07 238.31,832.41 220.61,853.48">
        <lane id="-30186293_0" index="0" allow="pedestrian" speed="27.78" length="43.41" width="2.00" shape="258.55,818.51 253.27,823.12 241.42,835.23 229.04,849.97">
            <param key="origId" value="30186293"/>
        </lane>
        <lane id="-30186293_1" index="1" disallow="pedestrian tram rail_urban rail rail_electric rail_fast ship" speed="27.78" length="43.41" shape="256.84,816.55 251.48,821.23 239.50,833.49 227.05,848.30">
            <param key="origId" value="30186293"/>
        </lane>
        <param key="origFrom" value="420767834"/>
        <param key="ref" value="102.01"/>
    </edge>
    <edge id="-311389509#0" from="380550404" to="cluster_1112561393_420767834_469421912" name="Sjöbovägen" priority="11" type="highway.secondary" shape="333.00,778.23 325.60,780.81 305.12,788.08 290.39,793.37 279.20,798.45">
        <lane id="-311389509#0_0" index="0" allow="pedestrian" speed="27.78" length="57.25" width="2.00" shape="334.38,782.20 326.99,784.77 306.53,792.04 291.97,797.27 280.94,802.27">
            <param key="origId" value="311389509 311389510"/>
        </lane>
        <lane id="-311389509#0_1" index="1" disallow="pedestrian tram rail_urban rail rail_electric rail_fast ship" speed="27.78" length="57.25" shape="333.53,779.74 326.13,782.32 305.66,789.59 290.99,794.85 279.86,799.91">
            <param key="origId" value="311389509 311389510"/>
        </lane>
        <param key="origTo" value="469421912"/>
        <param key="ref" value="102.01"/>
    </edge>
    <edge id="-34992983#1" from="410431626" to="469404170" name="Läkaregatan" priority="3" type="highway.residential" shape="241.86,892.63 272.36,957.02 289.13,997.29">
        <lane id="-34992983#1_0" index="0" allow="pedestrian" speed="13.89" length="114.88" width="2.00" shape="245.71,890.95 276.20,955.31 293.01,995.68">
            <param key="origId" value="34992983"/>
        </lane>
        <lane id="-34992983#1_1" index="1" disallow="pedestrian tram rail_urban rail rail_electric rail_fast ship" speed="13.89" length="114.88" shape="243.36,892.06 273.82,956.37 290.61,996.67">
            <param key="origId" value="34992983"/>
        </lane>
    </edge>
    <edge id="-34992983#3" from="267701936" to="410431626" name="Läkaregatan" priority="3" type="highway.residential" shape="220.61,853.48 226.87,863.39 241.86,892.63">
        <lane id="-34992983#3_0" index="0" allow="pedestrian" speed="13.89" length="35.49" width="2.00" shape="229.09,859.04 230.52,861.31 245.54,890.60">
            <param key="origId" value="34992983"/>
        </lane>
        <lane id="-34992983#3_1" index="1" disallow="pedestrian tram rail_urban rail rail_electric rail_fast ship" speed="13.89" length="35.49" shape="226.89,860.42 228.26,862.60 243.23,891.79">
            <param key="origId" value="34992983"/>
        </lane>
    </edge>
    <edge id="-355113043#1" from="469422058" to="267701934" name="Dörrödsvägen" priority="11" type="highway.secondary" shape="173.55,734.65 176.11,753.17 179.25,775.24 182.53,788.62">
        <lane id="-355113043#1_0" index="0" allow="pedestrian" speed="11.11" length="50.64" width="2.00" shape="177.71,734.07 180.27,752.59 183.38,774.44 185.70,783.90">
            <param key="origId" value="355113043"/>
        </lane>
        <lane id="-355113043#1_1" index="1" disallow="pedestrian tram rail_urban rail rail_electric rail_fast ship" speed="11.11" length="50.64" shape="175.13,734.43 177.69,752.95 180.82,774.94 183.17,784.52">
            <param key="origId" value="355113043"/>
        </lane>
        <param key="ref" value="102"/>
    </edge>
    <edge id="-355113044#1" from="cluster_1112561393_420767834_469421912" to="267701934" name="Gamla vägen" priority="11" type="highway.secondary" shape="262.54,809.44 256.50,807.58 220.50,796.36 200.48,790.34 190.83,788.96 182.53,788.62">
        <lane id="-355113044#1_0" index="0" disallow="tram rail_urban rail rail_electric rail_fast ship" speed="27.78" length="63.25" shape="252.43,807.99 220.03,797.89 200.13,791.91 191.68,790.70">
            <param key="origId" value="355113044 35996792"/>
        </lane>
        <param key="origFrom" value="420767834"/>
        <param key="ref" value="102.02"/>
    </edge>